[TITLE]
Data from Infiltration Trench installed at Villanova University
Data entered on September 6, 2013 by E. Hirschmann
BMP 20, STRM 165
 
[OPTIONS]
FLOW_UNITS           LPS
INFILTRATION         GREEN_AMPT
FLOW_ROUTING         DYNWAVE
START_DATE           12/09/2004
START_TIME           15:16:00
REPORT_START_DATE    12/09/2004
REPORT_START_TIME    15:16:00
END_DATE             12/11/2004
END_TIME             07:55:00
SWEEP_START          01/01
SWEEP_END            12/31
DRY_DAYS             0
REPORT_STEP          00:01:00
WET_STEP             00:01:00
DRY_STEP             00:01:00
ROUTING_STEP         0:00:05
ALLOW_PONDING        YES
INERTIAL_DAMPING     PARTIAL
VARIABLE_STEP        0.00
LENGTHENING_STEP     0
MIN_SURFAREA         0
NORMAL_FLOW_LIMITED  BOTH
SKIP_STEADY_STATE    NO
FORCE_MAIN_EQUATION  H-W
LINK_OFFSETS         DEPTH
MIN_SLOPE            0
 
[EVAPORATION]
;;Type       Parameters
;;---------- ----------
CONSTANT     0.0
DRY_ONLY     NO
 
[RAINGAGES]
;;               Rain      Time   Snow   Data
;;Name           Type      Intrvl Catch  Source
;;-------------- --------- ------ ------ ----------
12/09/04_Storm   INTENSITY 0:01   1.0    TIMESERIES Storm165
NoRain           INTENSITY 1:00   1.0    TIMESERIES NoRain
 
[SUBCATCHMENTS]
;;                                                 Total    Pcnt.             Pcnt.    Curb     Snow
;;Name           Raingage         Outlet           Area     Imperv   Width    Slope    Length   Pack
;;-------------- ---------------- ---------------- -------- -------- -------- -------- -------- --------
;Subcatchment for Villanova Infiltration Trench (BMP ID 20)
ParkingDeck      12/09/04_Storm   SWC              0.0036   100     6.00000000 2.00000000   0
SWC              12/09/04_Storm   1                0.00117  100      3        0.5      0
 
[SUBAREAS]
;;Subcatchment   N-Imperv   N-Perv     S-Imperv   S-Perv     PctZero    RouteTo    PctRouted
;;-------------- ---------- ---------- ---------- ---------- ---------- ---------- ----------
ParkingDeck      .140000000 0.1        0          0          100        OUTLET
SWC              0.014      0.014      0          0          100        OUTLET
 
[INFILTRATION]
;;Subcatchment   Suction    HydCon     IMDmax
;;-------------- ---------- ---------- ----------
ParkingDeck      3.0        0.5        4
SWC              3.0        0.5        4
 
[LID_CONTROLS]
;;               Type/Layer Parameters
;;-------------- ---------- ----------
Trench           IT
;;Trench         SURFACE   srf_strg   srf_vgvlm   srf_rghns    srf_slp   0.0
Trench           SURFACE  0.00000000 0.000000000 0.000000000 0.00000000  0
;;Trench         STORAGE   str_thck    str_vdrt    str_cndt
Trench           STORAGE  1800.00000 .0693412938 7.627859281  0.0
;;Trench         DRAIN      drn_cff     drn_xpn    drn_ffst
Trench           DRAIN    4.23291999 .9648047594 1580.000000  0.0
 
[LID_USAGE]
;;Subcatchment   LID Process      Number  Area       Width      InitSatur  FromImprv  ToPerv     Report File
;;-------------- ---------------- ------- ---------- ---------- ---------- ---------- ---------- -----------
SWC              Trench           1      6.00000000 0.00000000 0.000000000 100        0          "C:/VillanovaInfiltrationTrench/3/itrench20val2.txt"
 
[OUTFALLS]
;;               Invert     Outfall    Stage/Table      Tide
;;Name           Elev.      Type       Time Series      Gate
;;-------------- ---------- ---------- ---------------- ----
1                0          FREE                        NO
 
[TIMESERIES]
;;Name           Date       Time       Value
;;-------------- ---------- ---------- ----------
NoRain           1/1/2000   12:00      0
 
;12/9/2004 Villanova Infilration Trench Storm (mm/hr)
Storm165         12/9/2004  15:17      0
Storm165         12/9/2004  15:18      0
Storm165         12/9/2004  15:19      0
Storm165         12/9/2004  15:20      0
Storm165         12/9/2004  15:21      0
Storm165         12/9/2004  15:22      0
Storm165         12/9/2004  15:23      0
Storm165         12/9/2004  15:24      0
Storm165         12/9/2004  15:25      0.27131097
Storm165         12/9/2004  15:26      6.882706139
Storm165         12/9/2004  15:27      16.6773794
Storm165         12/9/2004  15:28      22.04166419
Storm165         12/9/2004  15:29      23.60437142
Storm165         12/9/2004  15:30      24.24750933
Storm165         12/9/2004  15:31      24.57297518
Storm165         12/9/2004  15:32      23.60437142
Storm165         12/9/2004  15:33      21.43448852
Storm165         12/9/2004  15:34      20.25052279
Storm165         12/9/2004  15:35      18.82694615
Storm165         12/9/2004  15:36      18.00252153
Storm165         12/9/2004  15:37      15.16674428
Storm165         12/9/2004  15:38      13.51193064
Storm165         12/9/2004  15:39      11.97046167
Storm165         12/9/2004  15:40      10.73736064
Storm165         12/9/2004  15:41      9.770605975
Storm165         12/9/2004  15:42      8.507968972
Storm165         12/9/2004  15:43      7.83304321
Storm165         12/9/2004  15:44      7.191305184
Storm165         12/9/2004  15:45      6.882706139
Storm165         12/9/2004  15:46      6.882706139
Storm165         12/9/2004  15:47      6.882706139
Storm165         12/9/2004  15:48      7.035990545
Storm165         12/9/2004  15:49      6.882706139
Storm165         12/9/2004  15:50      6.882706139
Storm165         12/9/2004  15:51      7.348658943
Storm165         12/9/2004  15:52      8.166322834
Storm165         12/9/2004  15:53      9.03627588
Storm165         12/9/2004  15:54      9.770605975
Storm165         12/9/2004  15:55      10.53962393
Storm165         12/9/2004  15:56      10.53962393
Storm165         12/9/2004  15:57      10.53962393
Storm165         12/9/2004  15:58      10.53962393
Storm165         12/9/2004  15:59      10.53962393
Storm165         12/9/2004  16:0       10.34408835
Storm165         12/9/2004  16:1       9.583792332
Storm165         12/9/2004  16:2       9.03627588
Storm165         12/9/2004  16:3       8.336095772
Storm165         12/9/2004  16:4       7.669519166
Storm165         12/9/2004  16:5       7.035990545
Storm165         12/9/2004  16:6       6.731443044
Storm165         12/9/2004  16:7       6.005132067
Storm165         12/9/2004  16:8       5.59302122
Storm165         12/9/2004  16:9       5.327991805
Storm165         12/9/2004  16:10      5.198362406
Storm165         12/9/2004  16:11      4.944827038
Storm165         12/9/2004  16:12      4.944827038
Storm165         12/9/2004  16:13      5.327991805
Storm165         12/9/2004  16:14      5.59302122
Storm165         12/9/2004  16:15      6.434944887
Storm165         12/9/2004  16:16      7.348658943
Storm165         12/9/2004  16:17      8.507968972
Storm165         12/9/2004  16:18      9.959587649
Storm165         12/9/2004  16:19      11.13947022
Storm165         12/9/2004  16:20      11.55048231
Storm165         12/9/2004  16:21      11.55048231
Storm165         12/9/2004  16:22      11.55048231
Storm165         12/9/2004  16:23      10.73736064
Storm165         12/9/2004  16:24      10.15074568
Storm165         12/9/2004  16:25      9.583792332
Storm165         12/9/2004  16:26      9.583792332
Storm165         12/9/2004  16:27      8.681951026
Storm165         12/9/2004  16:28      8.507968972
Storm165         12/9/2004  16:29      8.507968972
Storm165         12/9/2004  16:30      8.507968972
Storm165         12/9/2004  16:31      8.507968972
Storm165         12/9/2004  16:32      8.507968972
Storm165         12/9/2004  16:33      8.507968972
Storm165         12/9/2004  16:34      8.681951026
Storm165         12/9/2004  16:35      8.507968972
Storm165         12/9/2004  16:36      8.166322834
Storm165         12/9/2004  16:37      7.508060667
Storm165         12/9/2004  16:38      6.731443044
Storm165         12/9/2004  16:39      6.005132067
Storm165         12/9/2004  16:40      5.459541613
Storm165         12/9/2004  16:41      4.944827038
Storm165         12/9/2004  16:42      4.578689586
Storm165         12/9/2004  16:43      3.896452555
Storm165         12/9/2004  16:44      3.377617243
Storm165         12/9/2004  16:45      2.994164563
Storm165         12/9/2004  16:46      2.724580384
Storm165         12/9/2004  16:47      2.470109906
Storm165         12/9/2004  16:48      2.153817943
Storm165         12/9/2004  16:49      1.93346093
Storm165         12/9/2004  16:50      1.661548619
Storm165         12/9/2004  16:51      1.534766611
Storm165         12/9/2004  16:52      1.355792253
Storm165         12/9/2004  16:53      1.086544501
Storm165         12/9/2004  16:54      1.086544501
Storm165         12/9/2004  16:55      1.086544501
Storm165         12/9/2004  16:56      1.036938007
Storm165         12/9/2004  16:57      0.809405614
Storm165         12/9/2004  16:58      0.809405614
Storm165         12/9/2004  16:59      0.809405614
Storm165         12/9/2004  17:0       0.809405614
Storm165         12/9/2004  17:1       0.809405614
Storm165         12/9/2004  17:2       0.809405614
Storm165         12/9/2004  17:3       0.852223133
Storm165         12/9/2004  17:4       1.036938007
Storm165         12/9/2004  17:5       1.086544501
Storm165         12/9/2004  17:6       1.086544501
Storm165         12/9/2004  17:7       1.299071643
Storm165         12/9/2004  17:8       1.473627462
Storm165         12/9/2004  17:9       1.661548619
Storm165         12/9/2004  17:10      1.661548619
Storm165         12/9/2004  17:11      1.794415276
Storm165         12/9/2004  17:12      2.005329975
Storm165         12/9/2004  17:13      2.230459593
Storm165         12/9/2004  17:14      2.470109906
Storm165         12/9/2004  17:15      2.638091969
Storm165         12/9/2004  17:16      2.902605984
Storm165         12/9/2004  17:17      2.902605984
Storm165         12/9/2004  17:18      2.994164563
Storm165         12/9/2004  17:19      3.477837187
Storm165         12/9/2004  17:20      3.477837187
Storm165         12/9/2004  17:21      3.896452555
Storm165         12/9/2004  17:22      4.005590972
Storm165         12/9/2004  17:23      4.116543293
Storm165         12/9/2004  17:24      4.578689586
Storm165         12/9/2004  17:25      4.698859446
Storm165         12/9/2004  17:26      5.327991805
Storm165         12/9/2004  17:27      5.728439972
Storm165         12/9/2004  17:28      6.289691778
Storm165         12/9/2004  17:29      6.882706139
Storm165         12/9/2004  17:30      6.882706139
Storm165         12/9/2004  17:31      7.508060667
Storm165         12/9/2004  17:32      7.669519166
Storm165         12/9/2004  17:33      7.191305184
Storm165         12/9/2004  17:34      6.882706139
Storm165         12/9/2004  17:35      6.582192294
Storm165         12/9/2004  17:36      6.14642388
Storm165         12/9/2004  17:37      5.459541613
Storm165         12/9/2004  17:38      5.327991805
Storm165         12/9/2004  17:39      4.820902054
Storm165         12/9/2004  17:40      4.578689586
Storm165         12/9/2004  17:41      4.460382796
Storm165         12/9/2004  17:42      4.343929346
Storm165         12/9/2004  17:43      4.229319456
Storm165         12/9/2004  17:44      4.578689586
Storm165         12/9/2004  17:45      4.578689586
Storm165         12/9/2004  17:46      4.698859446
Storm165         12/9/2004  17:47      5.327991805
Storm165         12/9/2004  17:48      5.327991805
Storm165         12/9/2004  17:49      5.327991805
Storm165         12/9/2004  17:50      5.327991805
Storm165         12/9/2004  17:51      5.327991805
Storm165         12/9/2004  17:52      5.327991805
Storm165         12/9/2004  17:53      5.327991805
Storm165         12/9/2004  17:54      4.820902054
Storm165         12/9/2004  17:55      4.578689586
Storm165         12/9/2004  17:56      4.578689586
Storm165         12/9/2004  17:57      4.578689586
Storm165         12/9/2004  17:58      4.343929346
Storm165         12/9/2004  17:59      4.116543293
Storm165         12/9/2004  18:0       4.005590972
Storm165         12/9/2004  18:1       4.005590972
Storm165         12/9/2004  18:2       3.579820497
Storm165         12/9/2004  18:3       3.477837187
Storm165         12/9/2004  18:4       3.377617243
Storm165         12/9/2004  18:5       3.087434478
Storm165         12/9/2004  18:6       2.902605984
Storm165         12/9/2004  18:7       2.724580384
Storm165         12/9/2004  18:8       2.724580384
Storm165         12/9/2004  18:9       2.638091969
Storm165         12/9/2004  18:10      2.812748146
Storm165         12/9/2004  18:11      2.724580384
Storm165         12/9/2004  18:12      2.553272099
Storm165         12/9/2004  18:13      2.638091969
Storm165         12/9/2004  18:14      2.470109906
Storm165         12/9/2004  18:15      2.470109906
Storm165         12/9/2004  18:16      2.470109906
Storm165         12/9/2004  18:17      2.470109906
Storm165         12/9/2004  18:18      2.388594446
Storm165         12/9/2004  18:19      2.153817943
Storm165         12/9/2004  18:20      2.230459593
Storm165         12/9/2004  18:21      2.470109906
Storm165         12/9/2004  18:22      2.230459593
Storm165         12/9/2004  18:23      2.230459593
Storm165         12/9/2004  18:24      2.153817943
Storm165         12/9/2004  18:25      2.078778512
Storm165         12/9/2004  18:26      1.93346093
Storm165         12/9/2004  18:27      1.661548619
Storm165         12/9/2004  18:28      1.661548619
Storm165         12/9/2004  18:29      1.355792253
Storm165         12/9/2004  18:30      1.355792253
Storm165         12/9/2004  18:31      1.473627462
Storm165         12/9/2004  18:32      1.473627462
Storm165         12/9/2004  18:33      1.661548619
Storm165         12/9/2004  18:34      1.794415276
Storm165         12/9/2004  18:35      2.005329975
Storm165         12/9/2004  18:36      2.078778512
Storm165         12/9/2004  18:37      2.470109906
Storm165         12/9/2004  18:38      2.553272099
Storm165         12/9/2004  18:39      2.812748146
Storm165         12/9/2004  18:40      2.994164563
Storm165         12/9/2004  18:41      3.477837187
Storm165         12/9/2004  18:42      3.477837187
Storm165         12/9/2004  18:43      3.477837187
Storm165         12/9/2004  18:44      3.896452555
Storm165         12/9/2004  18:45      4.005590972
Storm165         12/9/2004  18:46      4.005590972
Storm165         12/9/2004  18:47      3.683577395
Storm165         12/9/2004  18:48      3.477837187
Storm165         12/9/2004  18:49      3.182426263
Storm165         12/9/2004  18:50      2.902605984
Storm165         12/9/2004  18:51      2.902605984
Storm165         12/9/2004  18:52      2.470109906
Storm165         12/9/2004  18:53      2.470109906
Storm165         12/9/2004  18:54      2.153817943
Storm165         12/9/2004  18:55      2.078778512
Storm165         12/9/2004  18:56      2.078778512
Storm165         12/9/2004  18:57      2.153817943
Storm165         12/9/2004  18:58      2.078778512
Storm165         12/9/2004  18:59      2.078778512
Storm165         12/9/2004  19:0       2.308714705
Storm165         12/9/2004  19:1       2.724580384
Storm165         12/9/2004  19:2       3.087434478
Storm165         12/9/2004  19:3       3.477837187
Storm165         12/9/2004  19:4       4.005590972
Storm165         12/9/2004  19:5       4.343929346
Storm165         12/9/2004  19:6       4.460382796
Storm165         12/9/2004  19:7       4.578689586
Storm165         12/9/2004  19:8       4.578689586
Storm165         12/9/2004  19:9       4.698859446
Storm165         12/9/2004  19:10      4.578689586
Storm165         12/9/2004  19:11      4.578689586
Storm165         12/9/2004  19:12      4.578689586
Storm165         12/9/2004  19:13      4.578689586
Storm165         12/9/2004  19:14      4.578689586
Storm165         12/9/2004  19:15      4.578689586
Storm165         12/9/2004  19:16      4.578689586
Storm165         12/9/2004  19:17      4.698859446
Storm165         12/9/2004  19:18      5.459541613
Storm165         12/9/2004  19:19      6.14642388
Storm165         12/9/2004  19:20      6.005132067
Storm165         12/9/2004  19:21      6.434944887
Storm165         12/9/2004  19:22      6.434944887
Storm165         12/9/2004  19:23      6.289691778
Storm165         12/9/2004  19:24      6.005132067
Storm165         12/9/2004  19:25      6.005132067
Storm165         12/9/2004  19:26      6.14642388
Storm165         12/9/2004  19:27      5.728439972
Storm165         12/9/2004  19:28      5.327991805
Storm165         12/9/2004  19:29      4.698859446
Storm165         12/9/2004  19:30      4.343929346
Storm165         12/9/2004  19:31      4.005590972
Storm165         12/9/2004  19:32      3.683577395
Storm165         12/9/2004  19:33      3.477837187
Storm165         12/9/2004  19:34      3.182426263
Storm165         12/9/2004  19:35      3.377617243
Storm165         12/9/2004  19:36      2.902605984
Storm165         12/9/2004  19:37      2.902605984
Storm165         12/9/2004  19:38      2.902605984
Storm165         12/9/2004  19:39      2.470109906
Storm165         12/9/2004  19:40      2.470109906
Storm165         12/9/2004  19:41      2.153817943
Storm165         12/9/2004  19:42      2.078778512
Storm165         12/9/2004  19:43      2.078778512
Storm165         12/9/2004  19:44      2.005329975
Storm165         12/9/2004  19:45      1.727215435
Storm165         12/9/2004  19:46      2.005329975
Storm165         12/9/2004  19:47      2.078778512
Storm165         12/9/2004  19:48      2.078778512
Storm165         12/9/2004  19:49      2.078778512
Storm165         12/9/2004  19:50      2.308714705
Storm165         12/9/2004  19:51      2.153817943
Storm165         12/9/2004  19:52      2.078778512
Storm165         12/9/2004  19:53      2.078778512
Storm165         12/9/2004  19:54      2.078778512
Storm165         12/9/2004  19:55      2.078778512
Storm165         12/9/2004  19:56      2.005329975
Storm165         12/9/2004  19:57      1.727215435
Storm165         12/9/2004  19:58      1.597402988
Storm165         12/9/2004  19:59      1.534766611
Storm165         12/9/2004  20:0       1.355792253
Storm165         12/9/2004  20:1       1.355792253
Storm165         12/9/2004  20:2       1.355792253
Storm165         12/9/2004  20:3       1.299071643
Storm165         12/9/2004  20:4       1.355792253
Storm165         12/9/2004  20:5       1.355792253
Storm165         12/9/2004  20:6       1.534766611
Storm165         12/9/2004  20:7       1.727215435
Storm165         12/9/2004  20:8       2.005329975
Storm165         12/9/2004  20:9       2.153817943
Storm165         12/9/2004  20:10      2.470109906
Storm165         12/9/2004  20:11      2.724580384
Storm165         12/9/2004  20:12      3.182426263
Storm165         12/9/2004  20:13      4.116543293
Storm165         12/9/2004  20:14      5.198362406
Storm165         12/9/2004  20:15      6.882706139
Storm165         12/9/2004  20:16      8.507968972
Storm165         12/9/2004  20:17      10.73736064
Storm165         12/9/2004  20:18      13.97305172
Storm165         12/9/2004  20:19      18.00252153
Storm165         12/9/2004  20:20      24.24750933
Storm165         12/9/2004  20:21      31.63890586
Storm165         12/9/2004  20:22      38.93446547
Storm165         12/9/2004  20:23      47.15607879
Storm165         12/9/2004  20:24      50.61129182
Storm165         12/9/2004  20:25      51.11689561
Storm165         12/9/2004  20:26      53.1695558
Storm165         12/9/2004  20:27      52.13716476
Storm165         12/9/2004  20:28      49.11253156
Storm165         12/9/2004  20:29      44.31038377
Storm165         12/9/2004  20:30      41.12378392
Storm165         12/9/2004  20:31      35.98930052
Storm165         12/9/2004  20:32      28.68389394
Storm165         12/9/2004  20:33      25.90097964
Storm165         12/9/2004  20:34      23.28668542
Storm165         12/9/2004  20:35      20.5427339
Storm165         12/9/2004  20:36      18.27487002
Storm165         12/9/2004  20:37      16.1642638
Storm165         12/9/2004  20:38      14.44348812
Storm165         12/9/2004  20:39      13.97305172
Storm165         12/9/2004  20:40      12.83757886
Storm165         12/9/2004  20:41      12.39947258
Storm165         12/9/2004  20:42      12.18383418
Storm165         12/9/2004  20:43      11.55048231
Storm165         12/9/2004  20:44      10.53962393
Storm165         12/9/2004  20:45      10.53962393
Storm165         12/9/2004  20:46      9.959587649
Storm165         12/9/2004  20:47      8.681951026
Storm165         12/9/2004  20:48      8.507968972
Storm165         12/9/2004  20:49      8.166322834
Storm165         12/9/2004  20:50      7.669519166
Storm165         12/9/2004  20:51      7.669519166
Storm165         12/9/2004  20:52      7.669519166
Storm165         12/9/2004  20:53      6.882706139
Storm165         12/9/2004  20:54      6.882706139
Storm165         12/9/2004  20:55      6.882706139
Storm165         12/9/2004  20:56      6.882706139
Storm165         12/9/2004  20:57      6.731443044
Storm165         12/9/2004  20:58      6.582192294
Storm165         12/9/2004  20:59      6.434944887
Storm165         12/9/2004  21:0       6.882706139
Storm165         12/9/2004  21:1       6.882706139
Storm165         12/9/2004  21:2       6.882706139
Storm165         12/9/2004  21:3       6.882706139
Storm165         12/9/2004  21:4       7.669519166
Storm165         12/9/2004  21:5       8.166322834
Storm165         12/9/2004  21:6       9.770605975
Storm165         12/9/2004  21:7       11.55048231
Storm165         12/9/2004  21:8       12.83757886
Storm165         12/9/2004  21:9       13.97305172
Storm165         12/9/2004  21:10      15.16674428
Storm165         12/9/2004  21:11      15.66073893
Storm165         12/9/2004  21:12      16.6773794
Storm165         12/9/2004  21:13      16.6773794
Storm165         12/9/2004  21:14      16.6773794
Storm165         12/9/2004  21:15      15.9113063
Storm165         12/9/2004  21:16      15.41255412
Storm165         12/9/2004  21:17      13.97305172
Storm165         12/9/2004  21:18      13.2848439
Storm165         12/9/2004  21:19      12.18383418
Storm165         12/9/2004  21:20      12.83757886
Storm165         12/9/2004  21:21      12.83757886
Storm165         12/9/2004  21:22      13.51193064
Storm165         12/9/2004  21:23      14.20710163
Storm165         12/9/2004  21:24      14.68221894
Storm165         12/9/2004  21:25      14.44348812
Storm165         12/9/2004  21:26      13.97305172
Storm165         12/9/2004  21:27      13.06006259
Storm165         12/9/2004  21:28      12.18383418
Storm165         12/9/2004  21:29      11.13947022
Storm165         12/9/2004  21:30      10.53962393
Storm165         12/9/2004  21:31      9.583792332
Storm165         12/9/2004  21:32      8.681951026
Storm165         12/9/2004  21:33      7.83304321
Storm165         12/9/2004  21:34      7.035990545
Storm165         12/9/2004  21:35      6.882706139
Storm165         12/9/2004  21:36      6.289691778
Storm165         12/9/2004  21:37      5.728439972
Storm165         12/9/2004  21:38      5.327991805
Storm165         12/9/2004  21:39      5.070643978
Storm165         12/9/2004  21:40      5.327991805
Storm165         12/9/2004  21:41      5.327991805
Storm165         12/9/2004  21:42      5.327991805
Storm165         12/9/2004  21:43      5.327991805
Storm165         12/9/2004  21:44      5.327991805
Storm165         12/9/2004  21:45      5.327991805
Storm165         12/9/2004  21:46      4.820902054
Storm165         12/9/2004  21:47      4.343929346
Storm165         12/9/2004  21:48      4.005590972
Storm165         12/9/2004  21:49      4.005590972
Storm165         12/9/2004  21:50      4.005590972
Storm165         12/9/2004  21:51      4.116543293
Storm165         12/9/2004  21:52      4.578689586
Storm165         12/9/2004  21:53      5.327991805
Storm165         12/9/2004  21:54      5.728439972
Storm165         12/9/2004  21:55      6.582192294
Storm165         12/9/2004  21:56      7.669519166
Storm165         12/9/2004  21:57      9.216635688
Storm165         12/9/2004  21:58      10.15074568
Storm165         12/9/2004  21:59      10.53962393
Storm165         12/9/2004  22:0       11.55048231
Storm165         12/9/2004  22:1       11.55048231
Storm165         12/9/2004  22:2       11.55048231
Storm165         12/9/2004  22:3       11.55048231
Storm165         12/9/2004  22:4       11.97046167
Storm165         12/9/2004  22:5       12.18383418
Storm165         12/9/2004  22:6       12.61738482
Storm165         12/9/2004  22:7       12.83757886
Storm165         12/9/2004  22:8       11.97046167
Storm165         12/9/2004  22:9       11.55048231
Storm165         12/9/2004  22:10      10.93730668
Storm165         12/9/2004  22:11      9.583792332
Storm165         12/9/2004  22:12      8.858050489
Storm165         12/9/2004  22:13      7.508060667
Storm165         12/9/2004  22:14      6.434944887
Storm165         12/9/2004  22:15      5.865807169
Storm165         12/9/2004  22:16      4.578689586
Storm165         12/9/2004  22:17      3.683577395
Storm165         12/9/2004  22:18      2.994164563
Storm165         12/9/2004  22:19      2.388594446
Storm165         12/9/2004  22:20      1.93346093
Storm165         12/9/2004  22:21      1.534766611
Storm165         12/9/2004  22:22      1.189962256
Storm165         12/9/2004  22:23      1.036938007
Storm165         12/9/2004  22:24      0.809405614
Storm165         12/9/2004  22:25      0.614800565
Storm165         12/9/2004  22:26      0.481642316
Storm165         12/9/2004  22:27      0.422247833
Storm165         12/9/2004  22:28      0.249957548
Storm165         12/9/2004  22:29      0.115111794
Storm165         12/9/2004  22:30      0.102473449
Storm165         12/9/2004  22:31      0.060420654
Storm165         12/9/2004  22:32      0.051923394
Storm165         12/9/2004  22:33      0.03718632
Storm165         12/9/2004  22:34      0.020349082
Storm165         12/9/2004  22:35      0.020349082
Storm165         12/9/2004  22:36      0.016034784
Storm165         12/9/2004  22:37      0.020349082
Storm165         12/9/2004  22:38      0.006573675
Storm165         12/9/2004  22:39      0.004471377
Storm165         12/9/2004  22:40      0.012321665
Storm165         12/9/2004  22:41      0.020349082
Storm165         12/9/2004  22:42      0.060420654
Storm165         12/9/2004  22:43      0.128641978
Storm165         12/9/2004  22:44      0.210357595
Storm165         12/9/2004  22:45      0.422247833
Storm165         12/9/2004  22:46      1.086544501
Storm165         12/9/2004  22:47      1.534766611
Storm165         12/9/2004  22:48      1.534766611
Storm165         12/9/2004  22:49      1.355792253
Storm165         12/9/2004  22:50      1.597402988
Storm165         12/9/2004  22:51      2.078778512
Storm165         12/9/2004  22:52      2.308714705
Storm165         12/9/2004  22:53      2.153817943
Storm165         12/9/2004  22:54      2.153817943
Storm165         12/9/2004  22:55      2.230459593
Storm165         12/9/2004  22:56      2.078778512
Storm165         12/9/2004  22:57      1.794415276
Storm165         12/9/2004  22:58      1.661548619
Storm165         12/9/2004  22:59      1.794415276
Storm165         12/9/2004  23:0       1.534766611
Storm165         12/9/2004  23:1       1.355792253
Storm165         12/9/2004  23:2       1.243799157
Storm165         12/9/2004  23:3       0.988715808
Storm165         12/9/2004  23:4       0.767905474
Storm165         12/9/2004  23:5       0.545786464
Storm165         12/9/2004  23:6       0.422247833
Storm165         12/9/2004  23:7       0.293723074
Storm165         12/9/2004  23:8       0.192075746
Storm165         12/9/2004  23:9       0.174781913
Storm165         12/9/2004  23:10      0.14308405
Storm165         12/9/2004  23:11      0.115111794
Storm165         12/9/2004  23:12      0.102473449
Storm165         12/9/2004  23:13      0.051923394
Storm165         12/9/2004  23:14      0.044186669
Storm165         12/9/2004  23:15      0.020349082
Storm165         12/9/2004  23:16      0.020349082
Storm165         12/9/2004  23:17      0.006573675
Storm165         12/9/2004  23:18      0.002834576
Storm165         12/9/2004  23:19      0.000286839
Storm165         12/9/2004  23:20      0
Storm165         12/9/2004  23:21      0
Storm165         12/9/2004  23:22      0
Storm165         12/9/2004  23:23      0
Storm165         12/9/2004  23:24      0
Storm165         12/9/2004  23:25      0
Storm165         12/9/2004  23:26      0
Storm165         12/9/2004  23:27      0
Storm165         12/9/2004  23:28      0.000790435
Storm165         12/9/2004  23:29      0.009178846
Storm165         12/9/2004  23:30      0.030897369
Storm165         12/9/2004  23:31      0.079789753
Storm165         12/9/2004  23:32      0.14308405
Storm165         12/9/2004  23:33      0.210357595
Storm165         12/9/2004  23:34      0.27131097
Storm165         12/9/2004  23:35      0.293723074
Storm165         12/9/2004  23:36      0.293723074
Storm165         12/9/2004  23:37      0.293723074
Storm165         12/9/2004  23:38      0.293723074
Storm165         12/9/2004  23:39      0.293723074
Storm165         12/9/2004  23:40      0.27131097
Storm165         12/9/2004  23:41      0.192075746
Storm165         12/9/2004  23:42      0.192075746
Storm165         12/9/2004  23:43      0.192075746
Storm165         12/9/2004  23:44      0.192075746
Storm165         12/9/2004  23:45      0.192075746
Storm165         12/9/2004  23:46      0.115111794
Storm165         12/9/2004  23:47      0.102473449
Storm165         12/9/2004  23:48      0.102473449
Storm165         12/9/2004  23:49      0.102473449
Storm165         12/9/2004  23:50      0.051923394
Storm165         12/9/2004  23:51      0.051923394
Storm165         12/9/2004  23:52      0.051923394
Storm165         12/9/2004  23:53      0.020349082
Storm165         12/9/2004  23:54      0.020349082