;;Project Title/Notes
;;Data from Seattle FS10 Green Roof Study
;;Data entered on December 9, 2013, 2013 by E. Hirschmann
;;LID 23, Storm 187
 
[OPTIONS]
;;Option             Value
FLOW_UNITS           GPM
INFILTRATION         GREEN_AMPT
FLOW_ROUTING         DYNWAVE
LINK_OFFSETS         DEPTH
MIN_SLOPE            0
ALLOW_PONDING        YES
SKIP_STEADY_STATE    NO
 
START_DATE           01/06/2009
START_TIME           10:35:00
REPORT_START_DATE    01/06/2009
REPORT_START_TIME    10:35:00
END_DATE             03/31/2009
END_TIME             23:55:00
SWEEP_START          01/01
SWEEP_END            12/31
DRY_DAYS             0
REPORT_STEP          00:05:00
WET_STEP             00:05:00
DRY_STEP             00:05:00
ROUTING_STEP         0:00:05
 
INERTIAL_DAMPING     PARTIAL
NORMAL_FLOW_LIMITED  BOTH
FORCE_MAIN_EQUATION  H-W
VARIABLE_STEP        0.00
LENGTHENING_STEP     0
MIN_SURFAREA         12.557
MAX_TRIALS           8
HEAD_TOLERANCE       0.005
SYS_FLOW_TOL         5
LAT_FLOW_TOL         5
MINIMUM_STEP         0.5
THREADS              1
 
[EVAPORATION]
;;Data Source    Parameters
;;-------------- ----------------
CONSTANT         0.0
DRY_ONLY         NO
 
[RAINGAGES]
;;Name           Format    Interval SCF      Source
;;-------------- --------- ------ ------ ----------
Jan-March_Storms INTENSITY 0:05     1.0      TIMESERIES Jan-Mar2009
 
[SUBCATCHMENTS]
;;Name           Rain Gage        Outlet           Area     %Imperv  Width    %Slope   CurbLen  SnowPack
;;-------------- ---------------- ---------------- -------- -------- -------- -------- -------- ----------------
FS10             Jan-March_Storms 1                .1470000    0.0      80       4.1670000E+00    0
 
[SUBAREAS]
;;Subcatchment   N-Imperv   N-Perv     S-Imperv   S-Perv     PctZero    RouteTo    PctRouted
;;-------------- ---------- ---------- ---------- ---------- ---------- ---------- ----------
FS10             0.01       0.1        0.05       0.05       25         OUTLET
 
[INFILTRATION]
;;Subcatchment   Suction    Ksat       IMD
;;-------------- ---------- ---------- ----------
FS10             3.0        0.5        4
 
[LID_CONTROLS]
;;               Type/Layer Parameters
;;-------------- ---------- ----------
GreenRoof        GR
;;GreenRoof      SURFACE   srf_strg   srf_vgvlm   srf_rghns    srf_slp   0.0
GreenRoof        SURFACE  1.00000000 .0500000000 .4100000000 4.17000000  0.1
;;GreenRoof      SOIL       sl_thck    sl_prsty    sl_fldcp   sl_wltpt      sl_kst     sl_kcff     sl_sctn
GreenRoof        SOIL     4.00000000 .4700000000 .3300000000 .090000000  3.00000000  .500000000  4.00000000
;;GreenRoof      DRAINMAT  dmt_thck   dmt_vdrto   dmt_rghns
GreenRoof        DRAINMAT 3.00000000 .3000000000 3.750000000
 
[LID_USAGE]
;;Subcatchment   LID Process      Number  Area       Width      InitSatur  FromImprv  ToPerv     Report File
;;-------------- ---------------- ------- ---------- ---------- ---------- ---------- ---------- -----------
FS10             GreenRoof        1       6400        2.5952783E+01    4.0356095E+01 100        0          "C:\2009Q1\groof09Q1.txt"
 
[OUTFALLS]
;;Name           Elevation  Type       Stage Data       Gated    Route To
;;-------------- ---------- ---------- ---------------- -------- ----------------
1                0          FREE                        NO
 
[TIMESERIES]
;;Name           Date       Time       Value
;;-------------- ---------- ---------- ----------
;5 min in/hr intensity time series
Jan-Mar2009      1/6/2009   10:40      0
Jan-Mar2009      1/6/2009   10:45      0
Jan-Mar2009      1/6/2009   10:50      0
Jan-Mar2009      1/6/2009   10:55      0
Jan-Mar2009      1/6/2009   11:00      0
Jan-Mar2009      1/6/2009   11:05      0
Jan-Mar2009      1/6/2009   11:10      0
Jan-Mar2009      1/6/2009   11:15      0
Jan-Mar2009      1/6/2009   11:20      0
Jan-Mar2009      1/6/2009   11:25      0
Jan-Mar2009      1/6/2009   11:30      0
Jan-Mar2009      1/6/2009   11:35      0
Jan-Mar2009      1/6/2009   11:40      0
Jan-Mar2009      1/6/2009   11:45      0
Jan-Mar2009      1/6/2009   11:50      0
Jan-Mar2009      1/6/2009   11:55      0
Jan-Mar2009      1/6/2009   12:00      0
Jan-Mar2009      1/6/2009   12:05      0
Jan-Mar2009      1/6/2009   12:10      0
Jan-Mar2009      1/6/2009   12:15      0.12
Jan-Mar2009      1/6/2009   12:20      0
Jan-Mar2009      1/6/2009   12:25      0
Jan-Mar2009      1/6/2009   12:30      0
Jan-Mar2009      1/6/2009   12:35      0
Jan-Mar2009      1/6/2009   12:40      0
Jan-Mar2009      1/6/2009   12:45      0
Jan-Mar2009      1/6/2009   12:50      0
Jan-Mar2009      1/6/2009   12:55      0
Jan-Mar2009      1/6/2009   13:00      0
Jan-Mar2009      1/6/2009   13:05      0
Jan-Mar2009      1/6/2009   13:10      0
Jan-Mar2009      1/6/2009   13:15      0
Jan-Mar2009      1/6/2009   13:20      0
Jan-Mar2009      1/6/2009   13:25      0
Jan-Mar2009      1/6/2009   13:30      0
Jan-Mar2009      1/6/2009   13:35      0
Jan-Mar2009      1/6/2009   13:40      0
Jan-Mar2009      1/6/2009   13:45      0
Jan-Mar2009      1/6/2009   13:50      0
Jan-Mar2009      1/6/2009   13:55      0
Jan-Mar2009      1/6/2009   14:00      0
Jan-Mar2009      1/6/2009   14:05      0
Jan-Mar2009      1/6/2009   14:10      0
Jan-Mar2009      1/6/2009   14:15      0
Jan-Mar2009      1/6/2009   14:20      0
Jan-Mar2009      1/6/2009   14:25      0
Jan-Mar2009      1/6/2009   14:30      0
Jan-Mar2009      1/6/2009   14:35      0
Jan-Mar2009      1/6/2009   14:40      0
Jan-Mar2009      1/6/2009   14:45      0
Jan-Mar2009      1/6/2009   14:50      0
Jan-Mar2009      1/6/2009   14:55      0
Jan-Mar2009      1/6/2009   15:00      0
Jan-Mar2009      1/6/2009   15:05      0
Jan-Mar2009      1/6/2009   15:10      0
Jan-Mar2009      1/6/2009   15:15      0
Jan-Mar2009      1/6/2009   15:20      0
Jan-Mar2009      1/6/2009   15:25      0
Jan-Mar2009      1/6/2009   15:30      0
Jan-Mar2009      1/6/2009   15:35      0
Jan-Mar2009      1/6/2009   15:40      0
Jan-Mar2009      1/6/2009   15:45      0
Jan-Mar2009      1/6/2009   15:50      0
Jan-Mar2009      1/6/2009   15:55      0
Jan-Mar2009      1/6/2009   16:00      0
Jan-Mar2009      1/6/2009   16:05      0
Jan-Mar2009      1/6/2009   16:10      0
Jan-Mar2009      1/6/2009   16:15      0
Jan-Mar2009      1/6/2009   16:20      0
Jan-Mar2009      1/6/2009   16:25      0
Jan-Mar2009      1/6/2009   16:30      0
Jan-Mar2009      1/6/2009   16:35      0
Jan-Mar2009      1/6/2009   16:40      0
Jan-Mar2009      1/6/2009   16:45      0
Jan-Mar2009      1/6/2009   16:50      0
Jan-Mar2009      1/6/2009   16:55      0
Jan-Mar2009      1/6/2009   17:00      0
Jan-Mar2009      1/6/2009   17:05      0
Jan-Mar2009      1/6/2009   17:10      0
Jan-Mar2009      1/6/2009   17:15      0
Jan-Mar2009      1/6/2009   17:20      0
Jan-Mar2009      1/6/2009   17:25      0
Jan-Mar2009      1/6/2009   17:30      0
Jan-Mar2009      1/6/2009   17:35      0
Jan-Mar2009      1/6/2009   17:40      0
Jan-Mar2009      1/6/2009   17:45      0
Jan-Mar2009      1/6/2009   17:50      0
Jan-Mar2009      1/6/2009   17:55      0
Jan-Mar2009      1/6/2009   18:00      0
Jan-Mar2009      1/6/2009   18:05      0
Jan-Mar2009      1/6/2009   18:10      0
Jan-Mar2009      1/6/2009   18:15      0
Jan-Mar2009      1/6/2009   18:20      0
Jan-Mar2009      1/6/2009   18:25      0
Jan-Mar2009      1/6/2009   18:30      0
Jan-Mar2009      1/6/2009   18:35      0
Jan-Mar2009      1/6/2009   18:40      0.12
Jan-Mar2009      1/6/2009   18:45      0
Jan-Mar2009      1/6/2009   18:50      0
Jan-Mar2009      1/6/2009   18:55      0
Jan-Mar2009      1/6/2009   19:00      0
Jan-Mar2009      1/6/2009   19:05      0
Jan-Mar2009      1/6/2009   19:10      0.12
Jan-Mar2009      1/6/2009   19:15      0
Jan-Mar2009      1/6/2009   19:20      0
Jan-Mar2009      1/6/2009   19:25      0
Jan-Mar2009      1/6/2009   19:30      0
Jan-Mar2009      1/6/2009   19:35      0
Jan-Mar2009      1/6/2009   19:40      0
Jan-Mar2009      1/6/2009   19:45      0
Jan-Mar2009      1/6/2009   19:50      0
Jan-Mar2009      1/6/2009   19:55      0
Jan-Mar2009      1/6/2009   20:00      0
Jan-Mar2009      1/6/2009   20:05      0
Jan-Mar2009      1/6/2009   20:10      0
Jan-Mar2009      1/6/2009   20:15      0
Jan-Mar2009      1/6/2009   20:20      0
Jan-Mar2009      1/6/2009   20:25      0
Jan-Mar2009      1/6/2009   20:30      0
Jan-Mar2009      1/6/2009   20:35      0
Jan-Mar2009      1/6/2009   20:40      0
Jan-Mar2009      1/6/2009   20:45      0.12
Jan-Mar2009      1/6/2009   20:50      0.12
Jan-Mar2009      1/6/2009   20:55      0
Jan-Mar2009      1/6/2009   21:00      0.12
Jan-Mar2009      1/6/2009   21:05      0
Jan-Mar2009      1/6/2009   21:10      0
Jan-Mar2009      1/6/2009   21:15      0
Jan-Mar2009      1/6/2009   21:20      0
Jan-Mar2009      1/6/2009   21:25      0.12
Jan-Mar2009      1/6/2009   21:30      0
Jan-Mar2009      1/6/2009   21:35      0
Jan-Mar2009      1/6/2009   21:40      0
Jan-Mar2009      1/6/2009   21:45      0
Jan-Mar2009      1/6/2009   21:50      0
Jan-Mar2009      1/6/2009   21:55      0.12
Jan-Mar2009      1/6/2009   22:00      0
Jan-Mar2009      1/6/2009   22:05      0
Jan-Mar2009      1/6/2009   22:10      0.12
Jan-Mar2009      1/6/2009   22:15      0
Jan-Mar2009      1/6/2009   22:20      0.12
Jan-Mar2009      1/6/2009   22:25      0
Jan-Mar2009      1/6/2009   22:30      0
Jan-Mar2009      1/6/2009   22:35      0
Jan-Mar2009      1/6/2009   22:40      0.12
Jan-Mar2009      1/6/2009   22:45      0
Jan-Mar2009      1/6/2009   22:50      0
Jan-Mar2009      1/6/2009   22:55      0.12
Jan-Mar2009      1/6/2009   23:00      0
Jan-Mar2009      1/6/2009   23:05      0.12
Jan-Mar2009      1/6/2009   23:10      0.12
Jan-Mar2009      1/6/2009   23:15      0.12
Jan-Mar2009      1/6/2009   23:20      0.12
Jan-Mar2009      1/6/2009   23:25      0
Jan-Mar2009      1/6/2009   23:30      0.12
Jan-Mar2009      1/6/2009   23:35      0.12
Jan-Mar2009      1/6/2009   23:40      0.12
Jan-Mar2009      1/6/2009   23:45      0.12
Jan-Mar2009      1/6/2009   23:50      0.12
Jan-Mar2009      1/6/2009   23:55      0.12
Jan-Mar2009      1/7/2009   0:00       0
Jan-Mar2009      1/7/2009   0:05       0.12
Jan-Mar2009      1/7/2009   0:10       0.12
Jan-Mar2009      1/7/2009   0:15       0.12
Jan-Mar2009      1/7/2009   0:20       0
Jan-Mar2009      1/7/2009   0:25       0.12
Jan-Mar2009      1/7/2009   0:30       0
Jan-Mar2009      1/7/2009   0:35       0.12
Jan-Mar2009      1/7/2009   0:40       0
Jan-Mar2009      1/7/2009   0:45       0
Jan-Mar2009      1/7/2009   0:50       0
Jan-Mar2009      1/7/2009   0:55       0
Jan-Mar2009      1/7/2009   1:00       0
Jan-Mar2009      1/7/2009   1:05       0
Jan-Mar2009      1/7/2009   1:10       0
Jan-Mar2009      1/7/2009   1:15       0
Jan-Mar2009      1/7/2009   1:20       0
Jan-Mar2009      1/7/2009   1:25       0
Jan-Mar2009      1/7/2009   1:30       0
Jan-Mar2009      1/7/2009   1:35       0
Jan-Mar2009      1/7/2009   1:40       0
Jan-Mar2009      1/7/2009   1:45       0
Jan-Mar2009      1/7/2009   1:50       0
Jan-Mar2009      1/7/2009   1:55       0
Jan-Mar2009      1/7/2009   2:00       0
Jan-Mar2009      1/7/2009   2:05       0
Jan-Mar2009      1/7/2009   2:10       0
Jan-Mar2009      1/7/2009   2:15       0
Jan-Mar2009      1/7/2009   2:20       0
Jan-Mar2009      1/7/2009   2:25       0
Jan-Mar2009      1/7/2009   2:30       0
Jan-Mar2009      1/7/2009   2:35       0
Jan-Mar2009      1/7/2009   2:40       0
Jan-Mar2009      1/7/2009   2:45       0
Jan-Mar2009      1/7/2009   2:50       0.12
Jan-Mar2009      1/7/2009   2:55       0
Jan-Mar2009      1/7/2009   3:00       0
Jan-Mar2009      1/7/2009   3:05       0.12
Jan-Mar2009      1/7/2009   3:10       0
Jan-Mar2009      1/7/2009   3:15       0
Jan-Mar2009      1/7/2009   3:20       0.12
Jan-Mar2009      1/7/2009   3:25       0
Jan-Mar2009      1/7/2009   3:30       0
Jan-Mar2009      1/7/2009   3:35       0
Jan-Mar2009      1/7/2009   3:40       0
Jan-Mar2009      1/7/2009   3:45       0.12
Jan-Mar2009      1/7/2009   3:50       0
Jan-Mar2009      1/7/2009   3:55       0
Jan-Mar2009      1/7/2009   4:00       0
Jan-Mar2009      1/7/2009   4:05       0
Jan-Mar2009      1/7/2009   4:10       0.12
Jan-Mar2009      1/7/2009   4:15       0
Jan-Mar2009      1/7/2009   4:20       0
Jan-Mar2009      1/7/2009   4:25       0
Jan-Mar2009      1/7/2009   4:30       0
Jan-Mar2009      1/7/2009   4:35       0
Jan-Mar2009      1/7/2009   4:40       0
Jan-Mar2009      1/7/2009   4:45       0
Jan-Mar2009      1/7/2009   4:50       0
Jan-Mar2009      1/7/2009   4:55       0
Jan-Mar2009      1/7/2009   5:00       0
Jan-Mar2009      1/7/2009   5:05       0
Jan-Mar2009      1/7/2009   5:10       0
Jan-Mar2009      1/7/2009   5:15       0
Jan-Mar2009      1/7/2009   5:20       0
Jan-Mar2009      1/7/2009   5:25       0
Jan-Mar2009      1/7/2009   5:30       0
Jan-Mar2009      1/7/2009   5:35       0
Jan-Mar2009      1/7/2009   5:40       0
Jan-Mar2009      1/7/2009   5:45       0.12
Jan-Mar2009      1/7/2009   5:50       0
Jan-Mar2009      1/7/2009   5:55       0
Jan-Mar2009      1/7/2009   6:00       0
Jan-Mar2009      1/7/2009   6:05       0
Jan-Mar2009      1/7/2009   6:10       0
Jan-Mar2009      1/7/2009   6:15       0
Jan-Mar2009      1/7/2009   6:20       0
Jan-Mar2009      1/7/2009   6:25       0
Jan-Mar2009      1/7/2009   6:30       0
Jan-Mar2009      1/7/2009   6:35       0
Jan-Mar2009      1/7/2009   6:40       0
Jan-Mar2009      1/7/2009   6:45       0
Jan-Mar2009      1/7/2009   6:50       0
Jan-Mar2009      1/7/2009   6:55       0
Jan-Mar2009      1/7/2009   7:00       0
Jan-Mar2009      1/7/2009   7:05       0
Jan-Mar2009      1/7/2009   7:10       0
Jan-Mar2009      1/7/2009   7:15       0
Jan-Mar2009      1/7/2009   7:20       0
Jan-Mar2009      1/7/2009   7:25       0
Jan-Mar2009      1/7/2009   7:30       0
Jan-Mar2009      1/7/2009   7:35       0
Jan-Mar2009      1/7/2009   7:40       0
Jan-Mar2009      1/7/2009   7:45       0
Jan-Mar2009      1/7/2009   7:50       0
Jan-Mar2009      1/7/2009   7:55       0
Jan-Mar2009      1/7/2009   8:00       0
Jan-Mar2009      1/7/2009   8:05       0.12
Jan-Mar2009      1/7/2009   8:10       0
Jan-Mar2009      1/7/2009   8:15       0
Jan-Mar2009      1/7/2009   8:20       0
Jan-Mar2009      1/7/2009   8:25       0
Jan-Mar2009      1/7/2009   8:30       0
Jan-Mar2009      1/7/2009   8:35       0
Jan-Mar2009      1/7/2009   8:40       0
Jan-Mar2009      1/7/2009   8:45       0
Jan-Mar2009      1/7/2009   8:50       0
Jan-Mar2009      1/7/2009   8:55       0
Jan-Mar2009      1/7/2009   9:00       0
Jan-Mar2009      1/7/2009   9:05       0
Jan-Mar2009      1/7/2009   9:10       0
Jan-Mar2009      1/7/2009   9:15       0
Jan-Mar2009      1/7/2009   9:20       0
Jan-Mar2009      1/7/2009   9:25       0
Jan-Mar2009      1/7/2009   9:30       0
Jan-Mar2009      1/7/2009   9:35       0
Jan-Mar2009      1/7/2009   9:40       0
Jan-Mar2009      1/7/2009   9:45       0
Jan-Mar2009      1/7/2009   9:50       0
Jan-Mar2009      1/7/2009   9:55       0
Jan-Mar2009      1/7/2009   10:00      0
Jan-Mar2009      1/7/2009   10:05      0
Jan-Mar2009      1/7/2009   10:10      0
Jan-Mar2009      1/7/2009   10:15      0
Jan-Mar2009      1/7/2009   10:20      0
Jan-Mar2009      1/7/2009   10:25      0
Jan-Mar2009      1/7/2009   10:30      0
Jan-Mar2009      1/7/2009   10:35      0
Jan-Mar2009      1/7/2009   10:40      0
Jan-Mar2009      1/7/2009   10:45      0
Jan-Mar2009      1/7/2009   10:50      0
Jan-Mar2009      1/7/2009   10:55      0
Jan-Mar2009      1/7/2009   11:00      0
Jan-Mar2009      1/7/2009   11:05      0
Jan-Mar2009      1/7/2009   11:10      0
Jan-Mar2009      1/7/2009   11:15      0
Jan-Mar2009      1/7/2009   11:20      0
Jan-Mar2009      1/7/2009   11:25      0
Jan-Mar2009      1/7/2009   11:30      0
Jan-Mar2009      1/7/2009   11:35      0
Jan-Mar2009      1/7/2009   11:40      0
Jan-Mar2009      1/7/2009   11:45      0
Jan-Mar2009      1/7/2009   11:50      0
Jan-Mar2009      1/7/2009   11:55      0.12
Jan-Mar2009      1/7/2009   12:00      0
Jan-Mar2009      1/7/2009   12:05      0
Jan-Mar2009      1/7/2009   12:10      0
Jan-Mar2009      1/7/2009   12:15      0
Jan-Mar2009      1/7/2009   12:20      0
Jan-Mar2009      1/7/2009   12:25      0
Jan-Mar2009      1/7/2009   12:30      0
Jan-Mar2009      1/7/2009   12:35      0
Jan-Mar2009      1/7/2009   12:40      0
Jan-Mar2009      1/7/2009   12:45      0
Jan-Mar2009      1/7/2009   12:50      0
Jan-Mar2009      1/7/2009   12:55      0
Jan-Mar2009      1/7/2009   13:00      0
Jan-Mar2009      1/7/2009   13:05      0
Jan-Mar2009      1/7/2009   13:10      0
Jan-Mar2009      1/7/2009   13:15      0
Jan-Mar2009      1/7/2009   13:20      0
Jan-Mar2009      1/7/2009   13:25      0
Jan-Mar2009      1/7/2009   13:30      0
Jan-Mar2009      1/7/2009   13:35      0
Jan-Mar2009      1/7/2009   13:40      0
Jan-Mar2009      1/7/2009   13:45      0
Jan-Mar2009      1/7/2009   13:50      0
Jan-Mar2009      1/7/2009   13:55      0
Jan-Mar2009      1/7/2009   14:00      0
Jan-Mar2009      1/7/2009   14:05      0
Jan-Mar2009      1/7/2009   14:10      0
Jan-Mar2009      1/7/2009   14:15      0
Jan-Mar2009      1/7/2009   14:20      0
Jan-Mar2009      1/7/2009   14:25      0
Jan-Mar2009      1/7/2009   14:30      0
Jan-Mar2009      1/7/2009   14:35      0
Jan-Mar2009      1/7/2009   14:40      0
Jan-Mar2009      1/7/2009   14:45      0
Jan-Mar2009      1/7/2009   14:50      0
Jan-Mar2009      1/7/2009   14:55      0
Jan-Mar2009      1/7/2009   15:00      0
Jan-Mar2009      1/7/2009   15:05      0
Jan-Mar2009      1/7/2009   15:10      0
Jan-Mar2009      1/7/2009   15:15      0
Jan-Mar2009      1/7/2009   15:20      0.12
Jan-Mar2009      1/7/2009   15:25      0
Jan-Mar2009      1/7/2009   15:30      0
Jan-Mar2009      1/7/2009   15:35      0
Jan-Mar2009      1/7/2009   15:40      0
Jan-Mar2009      1/7/2009   15:45      0
Jan-Mar2009      1/7/2009   15:50      0.12
Jan-Mar2009      1/7/2009   15:55      0
Jan-Mar2009      1/7/2009   16:00      0
Jan-Mar2009      1/7/2009   16:05      0
Jan-Mar2009      1/7/2009   16:10      0.12
Jan-Mar2009      1/7/2009   16:15      0
Jan-Mar2009      1/7/2009   16:20      0.12
Jan-Mar2009      1/7/2009   16:25      0
Jan-Mar2009      1/7/2009   16:30      0.12
Jan-Mar2009      1/7/2009   16:35      0.12
Jan-Mar2009      1/7/2009   16:40      0
Jan-Mar2009      1/7/2009   16:45      0.12
Jan-Mar2009      1/7/2009   16:50      0.12
Jan-Mar2009      1/7/2009   16:55      0.12
Jan-Mar2009      1/7/2009   17:00      0.12
Jan-Mar2009      1/7/2009   17:05      0.12
Jan-Mar2009      1/7/2009   17:10      0.12
Jan-Mar2009      1/7/2009   17:15      0.12
Jan-Mar2009      1/7/2009   17:20      0.24
Jan-Mar2009      1/7/2009   17:25      0.12
Jan-Mar2009      1/7/2009   17:30      0.12
Jan-Mar2009      1/7/2009   17:35      0.24
Jan-Mar2009      1/7/2009   17:40      0.12
Jan-Mar2009      1/7/2009   17:45      0.12
Jan-Mar2009      1/7/2009   17:50      0.12
Jan-Mar2009      1/7/2009   17:55      0.12
Jan-Mar2009      1/7/2009   18:00      0.12
Jan-Mar2009      1/7/2009   18:05      0.12
Jan-Mar2009      1/7/2009   18:10      0.12
Jan-Mar2009      1/7/2009   18:15      0.12
Jan-Mar2009      1/7/2009   18:20      0
Jan-Mar2009      1/7/2009   18:25      0.24
Jan-Mar2009      1/7/2009   18:30      0.12
Jan-Mar2009      1/7/2009   18:35      0
Jan-Mar2009      1/7/2009   18:40      0.24
Jan-Mar2009      1/7/2009   18:45      0.24
Jan-Mar2009      1/7/2009   18:50      0.12
Jan-Mar2009      1/7/2009   18:55      0.12
Jan-Mar2009      1/7/2009   19:00      0.12
Jan-Mar2009      1/7/2009   19:05      0
Jan-Mar2009      1/7/2009   19:10      0.12
Jan-Mar2009      1/7/2009   19:15      0.12
Jan-Mar2009      1/7/2009   19:20      0.12
Jan-Mar2009      1/7/2009   19:25      0.12
Jan-Mar2009      1/7/2009   19:30      0.12
Jan-Mar2009      1/7/2009   19:35      0.12
Jan-Mar2009      1/7/2009   19:40      0.12
Jan-Mar2009      1/7/2009   19:45      0.12
Jan-Mar2009      1/7/2009   19:50      0.12
Jan-Mar2009      1/7/2009   19:55      0.12
Jan-Mar2009      1/7/2009   20:00      0.12
Jan-Mar2009      1/7/2009   20:05      0.12
Jan-Mar2009      1/7/2009   20:10      0.12
Jan-Mar2009      1/7/2009   20:15      0.12
Jan-Mar2009      1/7/2009   20:20      0.12
Jan-Mar2009      1/7/2009   20:25      0.12
Jan-Mar2009      1/7/2009   20:30      0.12
Jan-Mar2009      1/7/2009   20:35      0.12
Jan-Mar2009      1/7/2009   20:40      0.12
Jan-Mar2009      1/7/2009   20:45      0.12
Jan-Mar2009      1/7/2009   20:50      0.12
Jan-Mar2009      1/7/2009   20:55      0
Jan-Mar2009      1/7/2009   21:00      0.24
Jan-Mar2009      1/7/2009   21:05      0.12
Jan-Mar2009      1/7/2009   21:10      0.12
Jan-Mar2009      1/7/2009   21:15      0.12
Jan-Mar2009      1/7/2009   21:20      0.12
Jan-Mar2009      1/7/2009   21:25      0.12
Jan-Mar2009      1/7/2009   21:30      0.12
Jan-Mar2009      1/7/2009   21:35      0.12
Jan-Mar2009      1/7/2009   21:40      0.24
Jan-Mar2009      1/7/2009   21:45      0.24
Jan-Mar2009      1/7/2009   21:50      0.12
Jan-Mar2009      1/7/2009   21:55      0.12
Jan-Mar2009      1/7/2009   22:00      0.12
Jan-Mar2009      1/7/2009   22:05      0.24
Jan-Mar2009      1/7/2009   22:10      0.12
Jan-Mar2009      1/7/2009   22:15      0.12
Jan-Mar2009      1/7/2009   22:20      0.24
Jan-Mar2009      1/7/2009   22:25      0.12
Jan-Mar2009      1/7/2009   22:30      0.24
Jan-Mar2009      1/7/2009   22:35      0.12
Jan-Mar2009      1/7/2009   22:40      0.12
Jan-Mar2009      1/7/2009   22:45      0.12
Jan-Mar2009      1/7/2009   22:50      0.12
Jan-Mar2009      1/7/2009   22:55      0.24
Jan-Mar2009      1/7/2009   23:00      0.12
Jan-Mar2009      1/7/2009   23:05      0
Jan-Mar2009      1/7/2009   23:10      0.24
Jan-Mar2009      1/7/2009   23:15      0.12
Jan-Mar2009      1/7/2009   23:20      0.24
Jan-Mar2009      1/7/2009   23:25      0.24
Jan-Mar2009      1/7/2009   23:30      0.12
Jan-Mar2009      1/7/2009   23:35      0.24
Jan-Mar2009      1/7/2009   23:40      0.12
Jan-Mar2009      1/7/2009   23:45      0.12
Jan-Mar2009      1/7/2009   23:50      0.12
Jan-Mar2009      1/7/2009   23:55      0.12
Jan-Mar2009      1/8/2009   0:00       0.24
Jan-Mar2009      1/8/2009   0:05       0.12
Jan-Mar2009      1/8/2009   0:10       0.24
Jan-Mar2009      1/8/2009   0:15       0.12
Jan-Mar2009      1/8/2009   0:20       0.12
Jan-Mar2009      1/8/2009   0:25       0.12
Jan-Mar2009      1/8/2009   0:30       0.12
Jan-Mar2009      1/8/2009   0:35       0.12
Jan-Mar2009      1/8/2009   0:40       0.12
Jan-Mar2009      1/8/2009   0:45       0.12
Jan-Mar2009      1/8/2009   0:50       0
Jan-Mar2009      1/8/2009   0:55       0.12
Jan-Mar2009      1/8/2009   1:00       0
Jan-Mar2009      1/8/2009   1:05       0.12
Jan-Mar2009      1/8/2009   1:10       0
Jan-Mar2009      1/8/2009   1:15       0
Jan-Mar2009      1/8/2009   1:20       0
Jan-Mar2009      1/8/2009   1:25       0
Jan-Mar2009      1/8/2009   1:30       0
Jan-Mar2009      1/8/2009   1:35       0
Jan-Mar2009      1/8/2009   1:40       0
Jan-Mar2009      1/8/2009   1:45       0
Jan-Mar2009      1/8/2009   1:50       0
Jan-Mar2009      1/8/2009   1:55       0
Jan-Mar2009      1/8/2009   2:00       0
Jan-Mar2009      1/8/2009   2:05       0
Jan-Mar2009      1/8/2009   2:10       0
Jan-Mar2009      1/8/2009   2:15       0
Jan-Mar2009      1/8/2009   2:20       0
Jan-Mar2009      1/8/2009   2:25       0.12
Jan-Mar2009      1/8/2009   2:30       0
Jan-Mar2009      1/8/2009   2:35       0
Jan-Mar2009      1/8/2009   2:40       0
Jan-Mar2009      1/8/2009   2:45       0
Jan-Mar2009      1/8/2009   2:50       0
Jan-Mar2009      1/8/2009   2:55       0
Jan-Mar2009      1/8/2009   3:00       0
Jan-Mar2009      1/8/2009   3:05       0
Jan-Mar2009      1/8/2009   3:10       0
Jan-Mar2009      1/8/2009   3:15       0
Jan-Mar2009      1/8/2009   3:20       0
Jan-Mar2009      1/8/2009   3:25       0
Jan-Mar2009      1/8/2009   3:30       0
Jan-Mar2009      1/8/2009   3:35       0.12
Jan-Mar2009      1/8/2009   3:40       0.12
Jan-Mar2009      1/8/2009   3:45       0.12
Jan-Mar2009      1/8/2009   3:50       0
Jan-Mar2009      1/8/2009   3:55       0.12
Jan-Mar2009      1/8/2009   4:00       0
Jan-Mar2009      1/8/2009   4:05       0
Jan-Mar2009      1/8/2009   4:10       0
Jan-Mar2009      1/8/2009   4:15       0
Jan-Mar2009      1/8/2009   4:20       0
Jan-Mar2009      1/8/2009   4:25       0
Jan-Mar2009      1/8/2009   4:30       0
Jan-Mar2009      1/8/2009   4:35       0
Jan-Mar2009      1/8/2009   4:40       0
Jan-Mar2009      1/8/2009   4:45       0
Jan-Mar2009      1/8/2009   4:50       0
Jan-Mar2009      1/8/2009   4:55       0
Jan-Mar2009      1/8/2009   5:00       0
Jan-Mar2009      1/8/2009   5:05       0
Jan-Mar2009      1/8/2009   5:10       0
Jan-Mar2009      1/8/2009   5:15       0
Jan-Mar2009      1/8/2009   5:20       0
Jan-Mar2009      1/8/2009   5:25       0
Jan-Mar2009      1/8/2009   5:30       0
Jan-Mar2009      1/8/2009   5:35       0
Jan-Mar2009      1/8/2009   5:40       0.12
Jan-Mar2009      1/8/2009   5:45       0
Jan-Mar2009      1/8/2009   5:50       0
Jan-Mar2009      1/8/2009   5:55       0
Jan-Mar2009      1/8/2009   6:00       0
Jan-Mar2009      1/8/2009   6:05       0
Jan-Mar2009      1/8/2009   6:10       0
Jan-Mar2009      1/8/2009   6:15       0
Jan-Mar2009      1/8/2009   6:20       0
Jan-Mar2009      1/8/2009   6:25       0
Jan-Mar2009      1/8/2009   6:30       0
Jan-Mar2009      1/8/2009   6:35       0
Jan-Mar2009      1/8/2009   6:40       0
Jan-Mar2009      1/8/2009   6:45       0
Jan-Mar2009      1/8/2009   6:50       0
Jan-Mar2009      1/8/2009   6:55       0
Jan-Mar2009      1/8/2009   7:00       0
Jan-Mar2009      1/8/2009   7:05       0
Jan-Mar2009      1/8/2009   7:10       0
Jan-Mar2009      1/8/2009   7:15       0
Jan-Mar2009      1/8/2009   7:20       0
Jan-Mar2009      1/8/2009   7:25       0
Jan-Mar2009      1/8/2009   7:30       0
Jan-Mar2009      1/8/2009   7:35       0
Jan-Mar2009      1/8/2009   7:40       0
Jan-Mar2009      1/8/2009   7:45       0
Jan-Mar2009      1/8/2009   7:50       0
Jan-Mar2009      1/8/2009   7:55       0
Jan-Mar2009      1/8/2009   8:00       0
Jan-Mar2009      1/8/2009   8:05       0
Jan-Mar2009      1/8/2009   8:10       0
Jan-Mar2009      1/8/2009   8:15       0
Jan-Mar2009      1/8/2009   8:20       0
Jan-Mar2009      1/8/2009   8:25       0
Jan-Mar2009      1/8/2009   8:30       0
Jan-Mar2009      1/8/2009   8:35       0
Jan-Mar2009      1/8/2009   8:40       0
Jan-Mar2009      1/8/2009   8:45       0
Jan-Mar2009      1/8/2009   8:50       0
Jan-Mar2009      1/8/2009   8:55       0
Jan-Mar2009      1/8/2009   9:00       0
Jan-Mar2009      1/8/2009   9:05       0
Jan-Mar2009      1/8/2009   9:10       0
Jan-Mar2009      1/8/2009   9:15       0
Jan-Mar2009      1/8/2009   9:20       0
Jan-Mar2009      1/8/2009   9:25       0
Jan-Mar2009      1/8/2009   9:30       0
Jan-Mar2009      1/8/2009   9:35       0
Jan-Mar2009      1/8/2009   9:40       0
Jan-Mar2009      1/8/2009   9:45       0
Jan-Mar2009      1/8/2009   9:50       0
Jan-Mar2009      1/8/2009   9:55       0
Jan-Mar2009      1/8/2009   10:00      0
Jan-Mar2009      1/8/2009   10:05      0
Jan-Mar2009      1/8/2009   10:10      0
Jan-Mar2009      1/8/2009   10:15      0
Jan-Mar2009      1/8/2009   10:20      0
Jan-Mar2009      1/8/2009   10:25      0
Jan-Mar2009      1/8/2009   10:30      0
Jan-Mar2009      1/8/2009   10:35      0
Jan-Mar2009      1/8/2009   10:40      0
Jan-Mar2009      1/8/2009   10:45      0
Jan-Mar2009      1/8/2009   10:50      0
Jan-Mar2009      1/8/2009   10:55      0
Jan-Mar2009      1/8/2009   11:00      0
Jan-Mar2009      1/8/2009   11:05      0
Jan-Mar2009      1/8/2009   11:10      0
Jan-Mar2009      1/8/2009   11:15      0
Jan-Mar2009      1/8/2009   11:20      0
Jan-Mar2009      1/8/2009   11:25      0
Jan-Mar2009      1/8/2009   11:30      0
Jan-Mar2009      1/8/2009   11:35      0
Jan-Mar2009      1/8/2009   11:40      0
Jan-Mar2009      1/8/2009   11:45      0
Jan-Mar2009      1/8/2009   11:50      0
Jan-Mar2009      1/8/2009   11:55      0
Jan-Mar2009      1/8/2009   12:00      0
Jan-Mar2009      1/8/2009   12:05      0
Jan-Mar2009      1/8/2009   12:10      0
Jan-Mar2009      1/8/2009   12:15      0
Jan-Mar2009      1/8/2009   12:20      0
Jan-Mar2009      1/8/2009   12:25      0
Jan-Mar2009      1/8/2009   12:30      0
Jan-Mar2009      1/8/2009   12:35      0
Jan-Mar2009      1/8/2009   12:40      0
Jan-Mar2009      1/8/2009   12:45      0
Jan-Mar2009      1/8/2009   12:50      0
Jan-Mar2009      1/8/2009   12:55      0
Jan-Mar2009      1/8/2009   13:00      0
Jan-Mar2009      1/8/2009   13:05      0
Jan-Mar2009      1/8/2009   13:10      0
Jan-Mar2009      1/8/2009   13:15      0
Jan-Mar2009      1/8/2009   13:20      0
Jan-Mar2009      1/8/2009   13:25      0
Jan-Mar2009      1/8/2009   13:30      0
Jan-Mar2009      1/8/2009   13:35      0
Jan-Mar2009      1/8/2009   13:40      0
Jan-Mar2009      1/8/2009   13:45      0
Jan-Mar2009      1/8/2009   13:50      0
Jan-Mar2009      1/8/2009   13:55      0
Jan-Mar2009      1/8/2009   14:00      0
Jan-Mar2009      1/8/2009   14:05      0
Jan-Mar2009      1/8/2009   14:10      0
Jan-Mar2009      1/8/2009   14:15      0
Jan-Mar2009      1/8/2009   14:20      0
Jan-Mar2009      1/8/2009   14:25      0
Jan-Mar2009      1/8/2009   14:30      0
Jan-Mar2009      1/8/2009   14:35      0
Jan-Mar2009      1/8/2009   14:40      0
Jan-Mar2009      1/8/2009   14:45      0
Jan-Mar2009      1/8/2009   14:50      0
Jan-Mar2009      1/8/2009   14:55      0
Jan-Mar2009      1/8/2009   15:00      0
Jan-Mar2009      1/8/2009   15:05      0
Jan-Mar2009      1/8/2009   15:10      0
Jan-Mar2009      1/8/2009   15:15      0
Jan-Mar2009      1/8/2009   15:20      0
Jan-Mar2009      1/8/2009   15:25      0
Jan-Mar2009      1/8/2009   15:30      0
Jan-Mar2009      1/8/2009   15:35      0