[TITLE]
Data from Infiltration Trench installed at Villanova University
Data entered on September 6, 2013 by E. Hirschmann
BMP 20, STRM 161
 
[OPTIONS]
FLOW_UNITS           LPS
INFILTRATION         GREEN_AMPT
FLOW_ROUTING         DYNWAVE
START_DATE           09/08/2004
START_TIME           22:59:00
REPORT_START_DATE    09/08/2004
REPORT_START_TIME    22:59:00
END_DATE             09/09/2004
END_TIME             02:38:00
SWEEP_START          01/01
SWEEP_END            12/31
DRY_DAYS             0
REPORT_STEP          00:01:00
WET_STEP             00:01:00
DRY_STEP             00:01:00
ROUTING_STEP         0:00:05
ALLOW_PONDING        YES
INERTIAL_DAMPING     PARTIAL
VARIABLE_STEP        0.00
LENGTHENING_STEP     0
MIN_SURFAREA         0
NORMAL_FLOW_LIMITED  BOTH
SKIP_STEADY_STATE    NO
FORCE_MAIN_EQUATION  H-W
LINK_OFFSETS         DEPTH
MIN_SLOPE            0
 
[EVAPORATION]
;;Type       Parameters
;;---------- ----------
CONSTANT     0.0
DRY_ONLY     NO
 
[RAINGAGES]
;;               Rain      Time   Snow   Data
;;Name           Type      Intrvl Catch  Source
;;-------------- --------- ------ ------ ----------
9/8/04_Storm     INTENSITY 0:01   1.0    TIMESERIES Storm161
NoRain           INTENSITY 1:00   1.0    TIMESERIES NoRain
 
[SUBCATCHMENTS]
;;                                                 Total    Pcnt.             Pcnt.    Curb     Snow
;;Name           Raingage         Outlet           Area     Imperv   Width    Slope    Length   Pack
;;-------------- ---------------- ---------------- -------- -------- -------- -------- -------- --------
;Subcatchment for Villanova Infiltration Trench (BMP ID 20)
ParkingDeck     9/8/04_Storm      SWC              0.01     100      100      1        0
SWC              NoRain           1                0.00117  100      3        0.5      0
 
[SUBAREAS]
;;Subcatchment   N-Imperv   N-Perv     S-Imperv   S-Perv     PctZero    RouteTo    PctRouted
;;-------------- ---------- ---------- ---------- ---------- ---------- ---------- ----------
ParkingDeck      0.01       0.1        0          0          25         OUTLET
SWC              0.014      0.014      0          0          25         OUTLET
 
[INFILTRATION]
;;Subcatchment   Suction    HydCon     IMDmax
;;-------------- ---------- ---------- ----------
ParkingDeck      3.0        0.5        4
SWC              3.0        0.5        4
 
[LID_CONTROLS]
;;               Type/Layer Parameters
;;-------------- ---------- ----------
Trench           IT
Trench           SURFACE    0          0          0.014      0          5
Trench           STORAGE    1600       0.43       30         650
Trench           DRAIN      0.1          0.1          0          6
 
[LID_USAGE]
;;Subcatchment   LID Process      Number  Area       Width      InitSatur  FromImprv  ToPerv     Report File
;;-------------- ---------------- ------- ---------- ---------- ---------- ---------- ---------- -----------
SWC               Trench           1       11.7       0          10.92931908 100        0          "C:/VillanovaInfiltrationTrench/1/itrench20cal.txt"
 
[OUTFALLS]
;;               Invert     Outfall    Stage/Table      Tide
;;Name           Elev.      Type       Time Series      Gate
;;-------------- ---------- ---------- ---------------- ----
1                0          FREE                        NO
 
[TIMESERIES]
;;Name           Date       Time       Value
;;-------------- ---------- ---------- ----------
NoRain           1/1/2000   12:00      0
 
;9/8/2004 Villanova Infilration Trench Storm (mm/hr)
Storm161         9/8/2004   23:0       0
Storm161         9/8/2004   23:1       0
Storm161         9/8/2004   23:2       0
Storm161         9/8/2004   23:3       0
Storm161         9/8/2004   23:4       0.14422187
Storm161         9/8/2004   23:5       0.890647855
Storm161         9/8/2004   23:6       3.139164867
Storm161         9/8/2004   23:7       7.919049237
Storm161         9/8/2004   23:8       13.29310143
Storm161         9/8/2004   23:9       14.49002746
Storm161         9/8/2004   23:10      14.49002746
Storm161         9/8/2004   23:11      13.68520478
Storm161         9/8/2004   23:12      12.90781714
Storm161         9/8/2004   23:13      11.79247743
Storm161         9/8/2004   23:14      10.39837051
Storm161         9/8/2004   23:15      9.579970908
Storm161         9/8/2004   23:16      8.801486926
Storm161         9/8/2004   23:17      8.206988488
Storm161         9/8/2004   23:18      7.919049237
Storm161         9/8/2004   23:19      7.498653974
Storm161         9/8/2004   23:20      7.226001352
Storm161         9/8/2004   23:21      6.57068002
Storm161         9/8/2004   23:22      6.444080644
Storm161         9/8/2004   23:23      5.833091933
Storm161         9/8/2004   23:24      4.930382843
Storm161         9/8/2004   23:25      4.718806308
Storm161         9/8/2004   23:26      4.718806308
Storm161         9/8/2004   23:27      4.512773013
Storm161         9/8/2004   23:28      4.117138594
Storm161         9/8/2004   23:29      3.743079958
Storm161         9/8/2004   23:30      3.65288897
Storm161         9/8/2004   23:31      3.476450441
Storm161         9/8/2004   23:32      3.139164867
Storm161         9/8/2004   23:33      2.978212462
Storm161         9/8/2004   23:34      2.746246544
Storm161         9/8/2004   23:35      2.384416787
Storm161         9/8/2004   23:36      2.384416787
Storm161         9/8/2004   23:37      2.315705659
Storm161         9/8/2004   23:38      2.181882071
Storm161         9/8/2004   23:39      1.990036354
Storm161         9/8/2004   23:40      1.990036354
Storm161         9/8/2004   23:41      1.867981408
Storm161         9/8/2004   23:42      1.693515598
Storm161         9/8/2004   23:43      1.58286251
Storm161         9/8/2004   23:44      1.425217488
Storm161         9/8/2004   23:45      1.325587269
Storm161         9/8/2004   23:46      1.13916328
Storm161         9/8/2004   23:47      1.13916328
Storm161         9/8/2004   23:48      1.010323908
Storm161         9/8/2004   23:49      0.929535695
Storm161         9/8/2004   23:50      0.929535695
Storm161         9/8/2004   23:51      0.929535695
Storm161         9/8/2004   23:52      0.890647855
Storm161         9/8/2004   23:53      0.890647855
Storm161         9/8/2004   23:54      0.779906907
Storm161         9/8/2004   23:55      0.744938538
Storm161         9/8/2004   23:56      0.710928159
Storm161         9/8/2004   23:57      0.584287026
Storm161         9/8/2004   23:58      0.554931191
Storm161         9/8/2004   23:59      0.554931191
Storm161         9/9/2004   0:0        0.554931191
Storm161         9/9/2004   0:1        0.554931191
Storm161         9/9/2004   0:2        0.472244955
Storm161         9/9/2004   0:3        0.42150932
Storm161         9/9/2004   0:4        0.42150932
Storm161         9/9/2004   0:5        0.42150932
Storm161         9/9/2004   0:6        0.42150932
Storm161         9/9/2004   0:7        0.374193022
Storm161         9/9/2004   0:8        0.289494524
Storm161         9/9/2004   0:9        0.30945324
Storm161         9/9/2004   0:10       0.289494524
Storm161         9/9/2004   0:11       0.289494524
Storm161         9/9/2004   0:12       0.289494524
Storm161         9/9/2004   0:13       0.289494524
Storm161         9/9/2004   0:14       0.251945238
Storm161         9/9/2004   0:15       0.217480785
Storm161         9/9/2004   0:16       0.20137752
Storm161         9/9/2004   0:17       0.20137752
Storm161         9/9/2004   0:18       0.20137752
Storm161         9/9/2004   0:19       0.186011707
Storm161         9/9/2004   0:20       0.171371729
Storm161         9/9/2004   0:21       0.157445785
Storm161         9/9/2004   0:22       0.131687773
Storm161         9/9/2004   0:23       0.131687773
Storm161         9/9/2004   0:24       0.119831063
Storm161         9/9/2004   0:25       0.035598853
Storm161         9/9/2004   0:26       0.119831063
Storm161         9/9/2004   0:27       0.119831063
Storm161         9/9/2004   0:28       0.108639076
Storm161         9/9/2004   0:29       0.108639076
Storm161         9/9/2004   0:30       0.07892103
Storm161         9/9/2004   0:31       0.08819737
Storm161         9/9/2004   0:32       0.07892103
Storm161         9/9/2004   0:33       0.07892103
Storm161         9/9/2004   0:34       0.070256139
Storm161         9/9/2004   0:35       0.070256139
Storm161         9/9/2004   0:36       0.070256139
Storm161         9/9/2004   0:37       0.070256139
Storm161         9/9/2004   0:38       0.062188636
Storm161         9/9/2004   0:39       0.006293048
Storm161         9/9/2004   0:40       0.062188636
Storm161         9/9/2004   0:41       0.062188636
Storm161         9/9/2004   0:42       0.041424602
Storm161         9/9/2004   0:43       0.041424602
Storm161         9/9/2004   0:44       0.035598853
Storm161         9/9/2004   0:45       0.035598853
Storm161         9/9/2004   0:46       0.035598853
Storm161         9/9/2004   0:47       0.035598853
Storm161         9/9/2004   0:48       0.035598853
Storm161         9/9/2004   0:49       0.035598853
Storm161         9/9/2004   0:50       0.035598853
Storm161         9/9/2004   0:51       0.035598853
Storm161         9/9/2004   0:52       0.035598853
Storm161         9/9/2004   0:53       0.035598853
Storm161         9/9/2004   0:54       0.035598853
Storm161         9/9/2004   0:55       0.035598853
Storm161         9/9/2004   0:56       0.035598853
Storm161         9/9/2004   0:57       0.035598853
Storm161         9/9/2004   0:58       0.035598853
Storm161         9/9/2004   0:59       0.035598853
Storm161         9/9/2004   1:0        0.035598853
Storm161         9/9/2004   1:1        0.035598853
Storm161         9/9/2004   1:2        0.035598853
Storm161         9/9/2004   1:3        0.035598853
Storm161         9/9/2004   1:4        0.035598853
Storm161         9/9/2004   1:5        0.030294528
Storm161         9/9/2004   1:6        0.025495065
Storm161         9/9/2004   1:7        0.0173416
Storm161         9/9/2004   1:8        0.013951399
Storm161         9/9/2004   1:9        0.013951399
Storm161         9/9/2004   1:10       0.013951399
Storm161         9/9/2004   1:11       0.013951399
Storm161         9/9/2004   1:12       0.013951399
Storm161         9/9/2004   1:13       0.013951399
Storm161         9/9/2004   1:14       0.013951399
Storm161         9/9/2004   1:15       0.013951399
Storm161         9/9/2004   1:16       0.013951399
Storm161         9/9/2004   1:17       0.013951399
Storm161         9/9/2004   1:18       0.013951399
Storm161         9/9/2004   1:19       0.013951399
Storm161         9/9/2004   1:20       0.010993502
Storm161         9/9/2004   1:21       0.010993502
Storm161         9/9/2004   1:22       0.013951399
Storm161         9/9/2004   1:23       0.013951399
Storm161         9/9/2004   1:24       0.010993502
Storm161         9/9/2004   1:25       0.013951399
Storm161         9/9/2004   1:26       0.010993502
Storm161         9/9/2004   1:27       0.010993502
Storm161         9/9/2004   1:28       0.010993502
Storm161         9/9/2004   1:29       0.010993502
Storm161         9/9/2004   1:30       0.008447775
Storm161         9/9/2004   1:31       0.004506933
Storm161         9/9/2004   1:32       0.003065591
Storm161         9/9/2004   1:33       0.001943395
Storm161         9/9/2004   1:34       0.001943395
Storm161         9/9/2004   1:35       0.001943395
Storm161         9/9/2004   1:36       0.003065591
Storm161         9/9/2004   1:37       0.001943395
Storm161         9/9/2004   1:38       0.001943395
Storm161         9/9/2004   1:39       0.001943395
Storm161         9/9/2004   1:40       0.001943395
Storm161         9/9/2004   1:41       0.001943395
Storm161         9/9/2004   1:42       0.001943395
Storm161         9/9/2004   1:43       0.001943395
Storm161         9/9/2004   1:44       0.001943395
Storm161         9/9/2004   1:45       0.001943395
Storm161         9/9/2004   1:46       0.001943395
Storm161         9/9/2004   1:47       0.001943395
Storm161         9/9/2004   1:48       0.001943395
Storm161         9/9/2004   1:49       0.001943395
Storm161         9/9/2004   1:50       0.001943395
Storm161         9/9/2004   1:51       0.001943395
Storm161         9/9/2004   1:52       0.001943395
Storm161         9/9/2004   1:53       0.001943395
Storm161         9/9/2004   1:54       0.001943395
Storm161         9/9/2004   1:55       0.001943395
Storm161         9/9/2004   1:56       0.001943395
Storm161         9/9/2004   1:57       0.001943395
Storm161         9/9/2004   1:58       0.001943395
Storm161         9/9/2004   1:59       0.001943395
Storm161         9/9/2004   2:0        0.001943395
Storm161         9/9/2004   2:1        0.001943395
Storm161         9/9/2004   2:2        0.001943395
Storm161         9/9/2004   2:3        0.001943395
Storm161         9/9/2004   2:4        0.001112464
Storm161         9/9/2004   2:5        0.001112464
Storm161         9/9/2004   2:6        0.001112464
Storm161         9/9/2004   2:7        0.001943395
Storm161         9/9/2004   2:8        0.001112464
Storm161         9/9/2004   2:9        0.001943395
Storm161         9/9/2004   2:10       0.001112464
Storm161         9/9/2004   2:11       0.000541925
Storm161         9/9/2004   2:12       0.001112464
Storm161         9/9/2004   2:13       0.000541925
Storm161         9/9/2004   2:14       0.000541925
Storm161         9/9/2004   2:15       0.000196658
Storm161         9/9/2004   2:16       0.000196658
Storm161         9/9/2004   2:17       0.000196658
Storm161         9/9/2004   2:18       0.000196658
Storm161         9/9/2004   2:19       0.000541925
Storm161         9/9/2004   2:20       0.000196658
Storm161         9/9/2004   2:21       0.001112464
Storm161         9/9/2004   2:22       0.000541925
Storm161         9/9/2004   2:23       3.47645E-05
Storm161         9/9/2004   2:24       0
Storm161         9/9/2004   2:25       0
Storm161         9/9/2004   2:26       0
Storm161         9/9/2004   2:27       0
Storm161         9/9/2004   2:28       0
Storm161         9/9/2004   2:29       0
Storm161         9/9/2004   2:30       0
Storm161         9/9/2004   2:31       0
Storm161         9/9/2004   2:32       0
Storm161         9/9/2004   2:33       0
Storm161         9/9/2004   2:34       0
Storm161         9/9/2004   2:35       0
Storm161         9/9/2004   2:36       0
Storm161         9/9/2004   2:37       0
Storm161         9/9/2004   2:38       0
 
[REPORT]
INPUT      YES
CONTROLS   YES
SUBCATCHMENTS ALL
NODES ALL
LINKS ALL
 
[TAGS]
 
[MAP]
DIMENSIONS 0.000 0.000 10000.000 10000.000
Units      None
 
[COORDINATES]
;;Node           X-Coord            Y-Coord
;;-------------- ------------------ ------------------
1                6674.234           6265.607
 
[VERTICES]
;;Link           X-Coord            Y-Coord
;;-------------- ------------------ ------------------
 
[Polygons]
;;Subcatchment   X-Coord            Y-Coord
;;-------------- ------------------ ------------------
ParkingDeck      1783.781           7951.079
ParkingDeck      2564.846           8223.268
ParkingDeck      3570.764           8033.919
ParkingDeck      4103.308           7465.871
ParkingDeck      4624.018           6637.469
ParkingDeck      3570.764           6270.605
ParkingDeck      2647.687           6175.931
ParkingDeck      1570.764           6696.641
ParkingDeck      1464.255           7501.374
ParkingDeck      1795.616           7915.576
SWC              4992.743           7844.702
SWC              4992.743           7844.702
SWC              5587.808           7409.289
SWC              6008.708           7859.216
SWC              5326.560           8222.061
SWC              4949.202           7815.675
 
[SYMBOLS]
;;Gage           X-Coord            Y-Coord
;;-------------- ------------------ ------------------
9/8/04_Storm     1328.036           8127.128
 
