[TITLE]
Data from Infiltration Trench installed at Villanova University
Data entered on September 6, 2013 by E. Hirschmann
BMP 20, STRM 157
 
[OPTIONS]
FLOW_UNITS           LPS
INFILTRATION         GREEN_AMPT
FLOW_ROUTING         DYNWAVE
START_DATE           07/07/2004
START_TIME           16:46:00
REPORT_START_DATE    07/07/2004
REPORT_START_TIME    16:46:00
END_DATE             07/07/2004
END_TIME             23:31:00
SWEEP_START          01/01
SWEEP_END            12/31
DRY_DAYS             0
REPORT_STEP          00:01:00
WET_STEP             00:01:00
DRY_STEP             00:01:00
ROUTING_STEP         0:00:05
ALLOW_PONDING        YES
INERTIAL_DAMPING     PARTIAL
VARIABLE_STEP        0.00
LENGTHENING_STEP     0
MIN_SURFAREA         0
NORMAL_FLOW_LIMITED  BOTH
SKIP_STEADY_STATE    NO
FORCE_MAIN_EQUATION  H-W
LINK_OFFSETS         DEPTH
MIN_SLOPE            0
 
[EVAPORATION]
;;Type       Parameters
;;---------- ----------
CONSTANT     0.0
DRY_ONLY     NO
 
[RAINGAGES]
;;               Rain      Time   Snow   Data
;;Name           Type      Intrvl Catch  Source
;;-------------- --------- ------ ------ ----------
12/09/04_Storm   INTENSITY 0:01   1.0    TIMESERIES Storm157
NoRain           INTENSITY 1:00   1.0    TIMESERIES NoRain
 
[SUBCATCHMENTS]
;;                                                 Total    Pcnt.             Pcnt.    Curb     Snow
;;Name           Raingage         Outlet           Area     Imperv   Width    Slope    Length   Pack
;;-------------- ---------------- ---------------- -------- -------- -------- -------- -------- --------
;Subcatchment for Villanova Infiltration Trench (BMP ID 20)
ParkingDeck       12/09/04_Storm   SWC              0.01     100      100      1        0
SWC               NoRain           1                0.00117  100      3        0.5      0
 
[SUBAREAS]
;;Subcatchment   N-Imperv   N-Perv     S-Imperv   S-Perv     PctZero    RouteTo    PctRouted
;;-------------- ---------- ---------- ---------- ---------- ---------- ---------- ----------
ParkingDeck       0.01       .100000000        0          0          25         OUTLET
SWC               0.014      0.014      0          0          25         OUTLET
 
[INFILTRATION]
;;Subcatchment   Suction    HydCon     IMDmax
;;-------------- ---------- ---------- ----------
ParkingDeck      3.0        0.5        4
SWC              3.0        0.5        4
 
[LID_CONTROLS]
;;               Type/Layer Parameters
;;-------------- ---------- ----------
Trench           IT
Trench           SURFACE    0          0          0.014      0          5
Trench           STORAGE    1600       0.43       30         650
Trench           DRAIN      0          0          0          6
 
 
[LID_USAGE]
;;Subcatchment   LID Process      Number  Area       Width      InitSatur  FromImprv  ToPerv     Report File
;;-------------- ---------------- ------- ---------- ---------- ---------- ---------- ---------- -----------
SWC               Trench           1       11.7       0          .0100000000 100        0          "C:/VillanovaInfiltrationTrench/2/itrench20val1.txt"
 
[OUTFALLS]
;;               Invert     Outfall    Stage/Table      Tide
;;Name           Elev.      Type       Time Series      Gate
;;-------------- ---------- ---------- ---------------- ----
1                0          FREE                        NO
 
[TIMESERIES]
;;Name           Date       Time       Value
;;-------------- ---------- ---------- ----------
NoRain           1/1/2000   12:00      0
 
;7/7/2004 Villanova Infilration Trench Storm (mm/hr)
Storm157         7/7/2004   16:47      0
Storm157         7/7/2004   16:48      0
Storm157         7/7/2004   16:49      0
Storm157         7/7/2004   16:50      0
Storm157         7/7/2004   16:51      0
Storm157         7/7/2004   16:52      0
Storm157         7/7/2004   16:53      0
Storm157         7/7/2004   16:54      0
Storm157         7/7/2004   16:55      0.016034784
Storm157         7/7/2004   16:56      2.078778512
Storm157         7/7/2004   16:57      6.434944887
Storm157         7/7/2004   16:58      10.93730668
Storm157         7/7/2004   16:59      13.2848439
Storm157         7/7/2004   17:0       14.44348812
Storm157         7/7/2004   17:1       17.46516685
Storm157         7/7/2004   17:2       22.04166419
Storm157         7/7/2004   17:3       24.90104822
Storm157         7/7/2004   17:4       28.3266887
Storm157         7/7/2004   17:5       31.63890586
Storm157         7/7/2004   17:6       32.79210207
Storm157         7/7/2004   17:7       33.97015685
Storm157         7/7/2004   17:8       33.97015685
Storm157         7/7/2004   17:9       34.36839638
Storm157         7/7/2004   17:10      34.36839638
Storm157         7/7/2004   17:11      34.36839638
Storm157         7/7/2004   17:12      34.76942405
Storm157         7/7/2004   17:13      35.98930052
Storm157         7/7/2004   17:14      36.81661051
Storm157         7/7/2004   17:15      39.80157301
Storm157         7/7/2004   17:16      42.92722102
Storm157         7/7/2004   17:17      44.31038377
Storm157         7/7/2004   17:18      46.19569802
Storm157         7/7/2004   17:19      45.24714935
Storm157         7/7/2004   17:20      44.31038377
Storm157         7/7/2004   17:21      50.10870055
Storm157         7/7/2004   17:22      63.59088269
Storm157         7/7/2004   17:23      85.10583114
Storm157         7/7/2004   17:24      115.3789776
Storm157         7/7/2004   17:25      141.795074
Storm157         7/7/2004   17:26      170.4957378
Storm157         7/7/2004   17:27      181.1356039
Storm157         7/7/2004   17:28      198.9699279
Storm157         7/7/2004   17:29      217.8183196
Storm157         7/7/2004   17:30      226.3881127
Storm157         7/7/2004   17:31      284.8770304
Storm157         7/7/2004   17:32      331.0108272
Storm157         7/7/2004   17:33      293.4830455
Storm157         7/7/2004   17:34      236.426145
Storm157         7/7/2004   17:35      216.6102339
Storm157         7/7/2004   17:36      175.7673674
Storm157         7/7/2004   17:37      151.3342128
Storm157         7/7/2004   17:38      133.5264888
Storm157         7/7/2004   17:39      107.2907705
Storm157         7/7/2004   17:40      88.59051758
Storm157         7/7/2004   17:41      75.15042566
Storm157         7/7/2004   17:42      66.52091237
Storm157         7/7/2004   17:43      59.06650474
Storm157         7/7/2004   17:44      53.1695558
Storm157         7/7/2004   17:45      49.11253156
Storm157         7/7/2004   17:46      48.12834044
Storm157         7/7/2004   17:47      49.6091158
Storm157         7/7/2004   17:48      56.33993571
Storm157         7/7/2004   17:49      64.75339473
Storm157         7/7/2004   17:50      76.43502227
Storm157         7/7/2004   17:51      90.00794066
Storm157         7/7/2004   17:52      98.79790331
Storm157         7/7/2004   17:53      108.0837518
Storm157         7/7/2004   17:54      111.29079
Storm157         7/7/2004   17:55      106.5012903
Storm157         7/7/2004   17:56      102.6062233
Storm157         7/7/2004   17:57      98.79790331
Storm157         7/7/2004   17:58      93.61074462
Storm157         7/7/2004   17:59      86.48964039
Storm157         7/7/2004   18:0       76.43502227
Storm157         7/7/2004   18:1       67.11644094
Storm157         7/7/2004   18:2       61.30365183
Storm157         7/7/2004   18:3       54.21411638
Storm157         7/7/2004   18:4       47.64072146
Storm157         7/7/2004   18:5       42.01969748
Storm157         7/7/2004   18:6       38.50520271
Storm157         7/7/2004   18:7       36.40154533
Storm157         7/7/2004   18:8       34.36839638
Storm157         7/7/2004   18:9       33.18201621
Storm157         7/7/2004   18:10      31.63890586
Storm157         7/7/2004   18:11      30.13967309
Storm157         7/7/2004   18:12      27.97216584
Storm157         7/7/2004   18:13      25.90097964
Storm157         7/7/2004   18:14      23.92464373
Storm157         7/7/2004   18:15      22.04166419
Storm157         7/7/2004   18:16      20.25052279
Storm157         7/7/2004   18:17      18.54967578
Storm157         7/7/2004   18:18      17.20014586
Storm157         7/7/2004   18:19      16.419619
Storm157         7/7/2004   18:20      14.68221894
Storm157         7/7/2004   18:21      13.97305172
Storm157         7/7/2004   18:22      12.61738482
Storm157         7/7/2004   18:23      11.75934706
Storm157         7/7/2004   18:24      10.93730668
Storm157         7/7/2004   18:25      10.53962393
Storm157         7/7/2004   18:26      10.34408835
Storm157         7/7/2004   18:27      9.03627588
Storm157         7/7/2004   18:28      9.583792332
Storm157         7/7/2004   18:29      9.583792332
Storm157         7/7/2004   18:30      10.15074568
Storm157         7/7/2004   18:31      10.53962393
Storm157         7/7/2004   18:32      11.13947022
Storm157         7/7/2004   18:33      12.18383418
Storm157         7/7/2004   18:34      14.44348812
Storm157         7/7/2004   18:35      18.54967578
Storm157         7/7/2004   18:36      20.5427339
Storm157         7/7/2004   18:37      24.24750933
Storm157         7/7/2004   18:38      30.13967309
Storm157         7/7/2004   18:39      37.65522755
Storm157         7/7/2004   18:40      48.12834044
Storm157         7/7/2004   18:41      59.06650474
Storm157         7/7/2004   18:42      65.92856561
Storm157         7/7/2004   18:43      70.75674739
Storm157         7/7/2004   18:44      73.24796969
Storm157         7/7/2004   18:45      81.70470717
Storm157         7/7/2004   18:46      87.88686289
Storm157         7/7/2004   18:47      95.07567658
Storm157         7/7/2004   18:48      95.81326601
Storm157         7/7/2004   18:49      95.07567658
Storm157         7/7/2004   18:50      90.00794066
Storm157         7/7/2004   18:51      85.7960618
Storm157         7/7/2004   18:52      79.70386061
Storm157         7/7/2004   18:53      73.24796969
Storm157         7/7/2004   18:54      65.92856561
Storm157         7/7/2004   18:55      61.87074976
Storm157         7/7/2004   18:56      56.87907042
Storm157         7/7/2004   18:57      51.11689561
Storm157         7/7/2004   18:58      45.24714935
Storm157         7/7/2004   18:59      41.12378392
Storm157         7/7/2004   19:0       38.07879219
Storm157         7/7/2004   19:1       35.57986966
Storm157         7/7/2004   19:2       33.97015685
Storm157         7/7/2004   19:3       32.02055345
Storm157         7/7/2004   19:4       31.63890586
Storm157         7/7/2004   19:5       30.13967309
Storm157         7/7/2004   19:6       28.68389394
Storm157         7/7/2004   19:7       27.27114027
Storm157         7/7/2004   19:8       26.23955052
Storm157         7/7/2004   19:9       24.90104822
Storm157         7/7/2004   19:10      23.92464373
Storm157         7/7/2004   19:11      22.97157872
Storm157         7/7/2004   19:12      21.73680434
Storm157         7/7/2004   19:13      20.83746044
Storm157         7/7/2004   19:14      19.67361807
Storm157         7/7/2004   19:15      18.27487002
Storm157         7/7/2004   19:16      16.93755253
Storm157         7/7/2004   19:17      15.9113063
Storm157         7/7/2004   19:18      14.92330176
Storm157         7/7/2004   19:19      13.97305172
Storm157         7/7/2004   19:20      13.06006259
Storm157         7/7/2004   19:21      12.83757886
Storm157         7/7/2004   19:22      12.39947258
Storm157         7/7/2004   19:23      12.18383418
Storm157         7/7/2004   19:24      12.18383418
Storm157         7/7/2004   19:25      12.61738482
Storm157         7/7/2004   19:26      12.83757886
Storm157         7/7/2004   19:27      13.2848439
Storm157         7/7/2004   19:28      14.44348812
Storm157         7/7/2004   19:29      15.16674428
Storm157         7/7/2004   19:30      16.419619
Storm157         7/7/2004   19:31      13.74133065
Storm157         7/7/2004   19:32      17.20014586
Storm157         7/7/2004   19:33      18.00252153
Storm157         7/7/2004   19:34      18.00252153
Storm157         7/7/2004   19:35      18.00252153
Storm157         7/7/2004   19:36      18.00252153
Storm157         7/7/2004   19:37      12.83757886
Storm157         7/7/2004   19:38      18.00252153
Storm157         7/7/2004   19:39      17.46516685
Storm157         7/7/2004   19:40      16.6773794
Storm157         7/7/2004   19:41      16.419619
Storm157         7/7/2004   19:42      15.41255412
Storm157         7/7/2004   19:43      15.16674428
Storm157         7/7/2004   19:44      14.20710163
Storm157         7/7/2004   19:45      13.51193064
Storm157         7/7/2004   19:46      13.06006259
Storm157         7/7/2004   19:47      12.61738482
Storm157         7/7/2004   19:48      11.75934706
Storm157         7/7/2004   19:49      11.55048231
Storm157         7/7/2004   19:50      10.53962393
Storm157         7/7/2004   19:51      9.770605975
Storm157         7/7/2004   19:52      8.336095772
Storm157         7/7/2004   19:53      8.507968972
Storm157         7/7/2004   19:54      7.998641534
Storm157         7/7/2004   19:55      7.508060667
Storm157         7/7/2004   19:56      6.882706139
Storm157         7/7/2004   19:57      6.582192294
Storm157         7/7/2004   19:58      6.005132067
Storm157         7/7/2004   19:59      6.005132067
Storm157         7/7/2004   20:0       5.327991805
Storm157         7/7/2004   20:1       4.698859446
Storm157         7/7/2004   20:2       4.343929346
Storm157         7/7/2004   20:3       4.005590972
Storm157         7/7/2004   20:4       3.683577395
Storm157         7/7/2004   20:5       3.477837187
Storm157         7/7/2004   20:6       3.182426263
Storm157         7/7/2004   20:7       2.902605984
Storm157         7/7/2004   20:8       2.902605984
Storm157         7/7/2004   20:9       2.470109906
Storm157         7/7/2004   20:10      2.470109906
Storm157         7/7/2004   20:11      2.153817943
Storm157         7/7/2004   20:12      2.078778512
Storm157         7/7/2004   20:13      1.863159887
Storm157         7/7/2004   20:14      1.661548619
Storm157         7/7/2004   20:15      1.597402988
Storm157         7/7/2004   20:16      1.355792253
Storm157         7/7/2004   20:17      1.355792253
Storm157         7/7/2004   20:18      1.355792253
Storm157         7/7/2004   20:19      1.137548292
Storm157         7/7/2004   20:20      1.086544501
Storm157         7/7/2004   20:21      1.086544501
Storm157         7/7/2004   20:22      0.988715808
Storm157         7/7/2004   20:23      0.852223133
Storm157         7/7/2004   20:24      0.809405614
Storm157         7/7/2004   20:25      0.809405614
Storm157         7/7/2004   20:26      0.809405614
Storm157         7/7/2004   20:27      0.809405614
Storm157         7/7/2004   20:28      0.614800565
Storm157         7/7/2004   20:29      0.614800565
Storm157         7/7/2004   20:30      0.614800565
Storm157         7/7/2004   20:31      0.614800565
Storm157         7/7/2004   20:32      0.545786464
Storm157         7/7/2004   20:33      0.451359004
Storm157         7/7/2004   20:34      0.422247833
Storm157         7/7/2004   20:35      0.422247833
Storm157         7/7/2004   20:36      0.422247833
Storm157         7/7/2004   20:37      0.422247833
Storm157         7/7/2004   20:38      0.422247833
Storm157         7/7/2004   20:39      0.394293276
Storm157         7/7/2004   20:40      0.293723074
Storm157         7/7/2004   20:41      0.293723074
Storm157         7/7/2004   20:42      0.293723074
Storm157         7/7/2004   20:43      0.293723074
Storm157         7/7/2004   20:44      0.293723074
Storm157         7/7/2004   20:45      0.293723074
Storm157         7/7/2004   20:46      0.293723074
Storm157         7/7/2004   20:47      0.293723074
Storm157         7/7/2004   20:48      0.249957548
Storm157         7/7/2004   20:49      0.192075746
Storm157         7/7/2004   20:50      0.192075746
Storm157         7/7/2004   20:51      0.192075746
Storm157         7/7/2004   20:52      0.192075746
Storm157         7/7/2004   20:53      0.192075746
Storm157         7/7/2004   20:54      0.090706437
Storm157         7/7/2004   20:55      0.174781913
Storm157         7/7/2004   20:56      0.192075746
Storm157         7/7/2004   20:57      0.192075746
Storm157         7/7/2004   20:58      0.174781913
Storm157         7/7/2004   20:59      0.14308405
Storm157         7/7/2004   21:0       0.115111794
Storm157         7/7/2004   21:1       0.102473449
Storm157         7/7/2004   21:2       0.102473449
Storm157         7/7/2004   21:3       0.102473449
Storm157         7/7/2004   21:4       0.102473449
Storm157         7/7/2004   21:5       0.102473449
Storm157         7/7/2004   21:6       0.102473449
Storm157         7/7/2004   21:7       0.102473449
Storm157         7/7/2004   21:8       0.102473449
Storm157         7/7/2004   21:9       0.102473449
Storm157         7/7/2004   21:10      0.102473449
Storm157         7/7/2004   21:11      0.102473449
Storm157         7/7/2004   21:12      0.102473449
Storm157         7/7/2004   21:13      0.102473449
Storm157         7/7/2004   21:14      0.090706437
Storm157         7/7/2004   21:15      0.090706437
Storm157         7/7/2004   21:16      0.060420654
Storm157         7/7/2004   21:17      0.051923394
Storm157         7/7/2004   21:18      0.051923394
Storm157         7/7/2004   21:19      0.051923394
Storm157         7/7/2004   21:20      0.051923394
Storm157         7/7/2004   21:21      0.051923394
Storm157         7/7/2004   21:22      0.051923394
Storm157         7/7/2004   21:23      0.051923394
Storm157         7/7/2004   21:24      0.051923394
Storm157         7/7/2004   21:25      0.051923394
Storm157         7/7/2004   21:26      0.051923394
Storm157         7/7/2004   21:27      0.051923394
Storm157         7/7/2004   21:28      0.051923394
Storm157         7/7/2004   21:29      0.044186669
Storm157         7/7/2004   21:30      0.03718632
Storm157         7/7/2004   21:31      0.051923394
Storm157         7/7/2004   21:32      0.044186669
Storm157         7/7/2004   21:33      0.030897369
Storm157         7/7/2004   21:34      0.030897369
Storm157         7/7/2004   21:35      0.020349082
Storm157         7/7/2004   21:36      0.020349082
Storm157         7/7/2004   21:37      0.020349082
Storm157         7/7/2004   21:38      0.020349082
Storm157         7/7/2004   21:39      0.020349082
Storm157         7/7/2004   21:40      0.020349082
Storm157         7/7/2004   21:41      0.020349082
Storm157         7/7/2004   21:42      0.020349082
Storm157         7/7/2004   21:43      0.020349082
Storm157         7/7/2004   21:44      0.020349082
Storm157         7/7/2004   21:45      0.020349082
Storm157         7/7/2004   21:46      0.020349082
Storm157         7/7/2004   21:47      0.020349082
Storm157         7/7/2004   21:48      0.020349082
Storm157         7/7/2004   21:49      0.020349082
Storm157         7/7/2004   21:50      0.020349082
Storm157         7/7/2004   21:51      0.020349082
Storm157         7/7/2004   21:52      0.020349082
Storm157         7/7/2004   21:53      0.016034784
Storm157         7/7/2004   21:54      0.020349082
Storm157         7/7/2004   21:55      0.016034784
Storm157         7/7/2004   21:56      0.016034784
Storm157         7/7/2004   21:57      0.016034784
Storm157         7/7/2004   21:58      0.012321665
Storm157         7/7/2004   21:59      0.004471377
Storm157         7/7/2004   22:0       0.004471377
Storm157         7/7/2004   22:1       0.002834576
Storm157         7/7/2004   22:2       0.002834576
Storm157         7/7/2004   22:3       0.002834576
Storm157         7/7/2004   22:4       0.002834576
Storm157         7/7/2004   22:5       0.002834576
Storm157         7/7/2004   22:6       0.002834576
Storm157         7/7/2004   22:7       0.002834576
Storm157         7/7/2004   22:8       0.002834576
Storm157         7/7/2004   22:9       0.002834576
Storm157         7/7/2004   22:10      0.002834576
Storm157         7/7/2004   22:11      0.002834576
Storm157         7/7/2004   22:12      0.002834576
Storm157         7/7/2004   22:13      0.002834576
Storm157         7/7/2004   22:14      0.002834576
Storm157         7/7/2004   22:15      0.002834576
Storm157         7/7/2004   22:16      0.002834576
Storm157         7/7/2004   22:17      0.002834576
Storm157         7/7/2004   22:18      0.002834576
Storm157         7/7/2004   22:19      0.002834576
Storm157         7/7/2004   22:20      0.002834576
Storm157         7/7/2004   22:21      0.002834576
Storm157         7/7/2004   22:22      0.002834576
Storm157         7/7/2004   22:23      0.002834576
Storm157         7/7/2004   22:24      0.002834576
Storm157         7/7/2004   22:25      0.002834576
Storm157         7/7/2004   22:26      0.002834576
Storm157         7/7/2004   22:27      0.002834576
Storm157         7/7/2004   22:28      0.002834576
Storm157         7/7/2004   22:29      0.002834576
Storm157         7/7/2004   22:30      0.002834576
Storm157         7/7/2004   22:31      0.002834576
Storm157         7/7/2004   22:32      0.002834576
Storm157         7/7/2004   22:33      0.001622606
Storm157         7/7/2004   22:34      0.001622606
Storm157         7/7/2004   22:35      0.000286839
Storm157         7/7/2004   22:36      0.000790435
Storm157         7/7/2004   22:37      0.000286839
Storm157         7/7/2004   22:38      0
Storm157         7/7/2004   22:39      0
Storm157         7/7/2004   22:40      0
Storm157         7/7/2004   22:41      0
Storm157         7/7/2004   22:42      0
Storm157         7/7/2004   22:43      0
Storm157         7/7/2004   22:44      0
Storm157         7/7/2004   22:45      0
Storm157         7/7/2004   22:46      0
Storm157         7/7/2004   22:47      0
Storm157         7/7/2004   22:48      0
Storm157         7/7/2004   22:49      0
Storm157         7/7/2004   22:50      0
Storm157         7/7/2004   22:51      0
Storm157         7/7/2004   22:52      0
Storm157         7/7/2004   22:53      0
Storm157         7/7/2004   22:54      0
Storm157         7/7/2004   22:55      0
Storm157         7/7/2004   22:56      0
Storm157         7/7/2004   22:57      0
Storm157         7/7/2004   22:58      0
Storm157         7/7/2004   22:59      0
Storm157         7/7/2004   23:0       0
Storm157         7/7/2004   23:1       0
Storm157         7/7/2004   23:2       0
Storm157         7/7/2004   23:3       0
Storm157         7/7/2004   23:4       0
Storm157         7/7/2004   23:5       0
Storm157         7/7/2004   23:6       0
Storm157         7/7/2004   23:7       0
Storm157         7/7/2004   23:8       0
Storm157         7/7/2004   23:9       0
Storm157         7/7/2004   23:10      0
Storm157         7/7/2004   23:11      0
Storm157         7/7/2004   23:12      0
Storm157         7/7/2004   23:13      0
Storm157         7/7/2004   23:14      0
Storm157         7/7/2004   23:15      0
Storm157         7/7/2004   23:16      0
Storm157         7/7/2004   23:17      0
Storm157         7/7/2004   23:18      0
Storm157         7/7/2004   23:19      0
Storm157         7/7/2004   23:20      0
Storm157         7/7/2004   23:21      0
Storm157         7/7/2004   23:22      0
Storm157         7/7/2004   23:23      0
Storm157         7/7/2004   23:24      0
Storm157         7/7/2004   23:25      0
Storm157         7/7/2004   23:26      0
Storm157         7/7/2004   23:27      0
Storm157         7/7/2004   23:28      0
Storm157         7/7/2004   23:29      0
Storm157         7/7/2004   23:30      0
 
[REPORT]
INPUT      YES
CONTROLS   YES
SUBCATCHMENTS ALL
NODES ALL
LINKS ALL
 
[TAGS]
 
[MAP]
DIMENSIONS 0.000 0.000 10000.000 10000.000
Units      None
 
[COORDINATES]
;;Node           X-Coord            Y-Coord
;;-------------- ------------------ ------------------
1                6674.234           6265.607
 
[VERTICES]
;;Link           X-Coord            Y-Coord
;;-------------- ------------------ ------------------
 
[Polygons]
;;Subcatchment   X-Coord            Y-Coord
;;-------------- ------------------ ------------------
ParkingDeck     1783.781           7951.079
ParkingDeck     2564.846           8223.268
ParkingDeck     3570.764           8033.919
ParkingDeck     4103.308           7465.871
ParkingDeck     4624.018           6637.469
ParkingDeck     3570.764           6270.605
ParkingDeck     2647.687           6175.931
ParkingDeck     1570.764           6696.641
ParkingDeck     1464.255           7501.374
ParkingDeck     1795.616           7915.576
SWC                4992.743           7844.702
SWC                4992.743           7844.702
SWC                5587.808           7409.289
SWC                6008.708           7859.216
SWC                5326.560           8222.061
SWC                4949.202           7815.675
 
[SYMBOLS]
;;Gage           X-Coord            Y-Coord
;;-------------- ------------------ ------------------
12/09/04_Storm   1328.036           8127.128
 
